"use strict";
!function(){try{var e="undefined"!=typeof window?window:"undefined"!=typeof global?global:"undefined"!=typeof globalThis?globalThis:"undefined"!=typeof self?self:{},n=(new e.Error).stack;n&&(e._sentryDebugIds=e._sentryDebugIds||{},e._sentryDebugIds[n]="0949d788-4c44-5d1a-adf0-1045b551292e")}catch(e){}}();
(self.webpackChunk_N_E=self.webpackChunk_N_E||[]).push([[9e4],{1494:(e,t,a)=>{a.d(t,{q:()=>r});let r={songLicenseForChurnedUsers:"ff_song-license-for-churned",pendingTeamMember:"ff__pending-team-member",businessFreeTrial:"ff__business-free-trial",switchToMonthly:"ff__switch-to-monthly",firstAssetInArtboardPopup:"ff__first_asset_in_artboard_popup",kickedUserPopup:"ff__kicked-user-popup",songMatchYoutube:"ff__song-match-youtube",pendingActions:"ff__pending-actions",browserFingerprinting:"ff__browser-fingerprinting",veo31Model:"ff__veo31-model",trendingSongsRemoveYouTubeViolationChanges:"ff__trending-songs-remove-youtube-violation-changes",holidayPromotion2025:"ff__holiday-promotion-2025",newTeamInvitationMessage:"ff__new-team-invitation-message",visualAiMobile:"ff__visual-ai-mobile",teamAICreditUsage:"ff__team_ai_credit_usage",textToImageModelSelect:"ff__text-to-image-model-select",madeWithAi:"ff__made-with-ai",contactSalesNewField:"ff__contact-sales-new-field",toolkitNav:"ff__toolkit-nav",pricingPageRedesign:"ff__pricing-page-redesign",aiModelsDynamicConfiguration:"ff__ai-models-dynamic-configuration",autoAspectRatio:"ff__auto-aspect-ratio"}},4709:(e,t,a)=>{a.d(t,{A9:()=>D,Bt:()=>J,Ct:()=>f,EE:()=>U,Es:()=>V,Fi:()=>w,Fn:()=>q,L:()=>y,Lc:()=>B,MS:()=>T,No:()=>_,RN:()=>m,SH:()=>x,Uv:()=>F,ZZ:()=>k,ac:()=>I,cP:()=>h,gR:()=>E,jh:()=>S,mw:()=>C,o4:()=>L,qw:()=>b,sp:()=>R,tx:()=>N,uP:()=>c,x5:()=>P,x6:()=>p,zz:()=>A});var r,i,n,o=a(41935),s=a(72466),l=a(24990),d=a(97335),u=a(76468);let c={[l.E7.footage]:l.qy.Clip,[l.E7.templates]:l.qy.Template,[l.E7.sfx]:l.qy.Track,[l.E7.music]:l.qy.Song,[l.E7.LUTs]:l.qy.Lut,[l.E7.aiMedia]:l.qy.AIMedia,[l.E7.aiImage]:l.qy.AIImage,[l.E7.aiVideo]:l.qy.AIVideo,[l.E7.album]:l.qy.Album,[l.E7.artist]:l.qy.Artist,[l.E7.voiceover]:l.qy.Voiceover},p=o.z.object({id:o.z.string(),assetId:o.z.string(),assetType:o.z.nativeEnum(l.qy),createdAt:o.z.string(),updatedAt:o.z.string(),addedBy:o.z.string().nullish(),hasActiveThreads:o.z.boolean().nullish()}),h=((r={}).ALPHABETICAL="alphabetical",r.LAST_UPDATED="lastUpdated",r.CREATED_AT="createdAt",r),m=((i={}).ASC="ASC",i.DESC="DESC",i),y=((n={}).ByMe="ByMe",n.ByAnyMember="ByAnyMember",n.AsAbleToEdit="AsAbleToEdit",n),g=e=>{let{assets:t,directoryTypeName:a,directoryId:r}=e;return(0,u.A)({method:"POST",apiURL:s.bN,apiServiceHost:d.VL,endpointVersion:"v1",endpoint:"/asset",data:{assetItems:t,directoryTypeName:a,directoryId:r}})},v=e=>{let{assetId:t,assetType:a,directoryTypeName:r,directoryId:i}=e;return(0,u.A)({method:"DELETE",apiURL:s.bN,apiServiceHost:d.VL,endpointVersion:"v1.1",endpoint:"/asset",data:{assetId:t,assetType:a,directoryTypeName:r,directoryId:i}})},b=e=>{let{assetTypes:t,take:a,skip:r,orderByKey:i=h.LAST_UPDATED,orderDirection:n=m.DESC,ownedBy:o}=e;return(e=>{let{directoryType:t,assetTypes:a,take:r,skip:i,orderByKey:n,orderDirection:o,ownedBy:l}=e;return(0,u.A)({method:"GET",apiURL:s.bN,apiServiceHost:d.VL,endpointVersion:"v1",endpoint:"/directory",params:{directoryType:t,directoryAssetTypes:a,take:r,skip:i,orderByKey:n,orderByDirection:o,ownedBy:l}})})({directoryType:"FOLDER",assetTypes:t,take:a,skip:r,orderByKey:i,orderDirection:n,ownedBy:o}).then(e=>e.data)},f=(e,t)=>(e=>{let{directoryTypeName:t,assetId:a,assetType:r}=e;return(0,u.A)({method:"GET",apiURL:s.bN,apiServiceHost:d.VL,endpointVersion:"v1",endpoint:"/asset/directories",params:{directoryTypeName:t,assetId:a,assetType:r}})})({directoryTypeName:"FOLDER",assetId:e,assetType:t}).then(e=>e.data),_=(e,t)=>(e=>{let{name:t,description:a,directoryTypeName:r}=e;return(0,u.A)({method:"POST",apiURL:s.bN,apiServiceHost:d.VL,endpointVersion:"v1",endpoint:"/directory",data:{name:t,description:a,directoryTypeName:r}})})({name:e,description:t,directoryTypeName:"FOLDER"}).then(e=>e.data),L=e=>(e=>{let{collectionId:t}=e;return(0,u.A)({method:"DELETE",apiURL:s.bN,apiServiceHost:d.VL,endpointVersion:"v1",endpoint:`/directory/${t}`,_endpointMask:"/directory/:collectionId"})})({collectionId:e}).then(e=>e.data),w=(e,t)=>(e=>{let{collectionId:t,collectionName:a,collectionDescription:r,collectionTags:i}=e;return(0,u.A)({method:"PATCH",apiURL:s.bN,apiServiceHost:d.VL,endpointVersion:"v1",endpoint:`/directory/${t}`,_endpointMask:"/directory/:collectionId",data:{name:a,...r&&{description:r},...i&&{tags:i}}})})({collectionId:e,...t}).then(e=>e.data),A=e=>(e=>{let{assets:t,directoryTypeName:a,toDictionaryResponse:r=!0}=e;return(0,u.A)({method:"POST",apiURL:s.bN,apiServiceHost:d.VL,endpointVersion:"v1",endpoint:"/asset/by-ids",data:{directoryTypeName:a,assetItems:t,toDictionaryResponse:r}})})({assets:e,directoryTypeName:"FAVORITE",toDictionaryResponse:!1}),x=function(e){let{take:t,skip:a,order:r,orderByKey:i}=arguments.length>1&&void 0!==arguments[1]?arguments[1]:{};return(e=>{let{directoryTypeName:t,assetTypes:a,take:r,skip:i,order:n,orderByKey:o}=e;return(0,u.A)({method:"GET",apiURL:s.bN,apiServiceHost:d.VL,endpointVersion:"v1.1",endpoint:"/asset",params:{directoryTypeName:t,assetTypes:a.toString(),take:r,skip:i,order:n,orderByKey:o}})})({directoryTypeName:"FAVORITE",assetTypes:e,take:t,skip:a,order:r,orderByKey:i})},T=e=>g({assets:e,directoryTypeName:"FAVORITE"}),S=(e,t)=>g({assets:e,directoryTypeName:"FOLDER",directoryId:t}),E=(e,t)=>S([{id:e,type:l.qy.Song}],t),U=(e,t)=>S([{id:e,type:l.qy.Track}],t),k=(e,t)=>S([{id:e,type:l.qy.Clip}],t),R=(e,t)=>v({assetId:e,assetType:t,directoryTypeName:"FAVORITE"}),P=(e,t,a)=>v({assetId:e,assetType:t,directoryTypeName:"FOLDER",directoryId:a}),D=(e,t)=>P(e,l.qy.Song,t),C=(e,t)=>P(e,l.qy.Track,t),N=(e,t)=>P(e,l.qy.Clip,t),q=(e,t)=>P(e,l.qy.Template,t),J=(e,t)=>P(e,l.qy.Voiceover,t),V=(e,t)=>P(e,l.qy.Lut,t),I=(e,t,a)=>P(e,a,t),M=o.z.object({name:o.z.string(),assetType:o.z.string()}),O=o.z.object({assets:o.z.array(p),folderName:o.z.string(),folderDescription:o.z.string().nullable().optional(),ownerName:o.z.string().nullish(),ownerEmail:o.z.string().nullish(),isCollaborative:o.z.boolean().nullish(),numberOfCollaborators:o.z.number().nullish(),tags:o.z.array(M.optional()).optional(),hasActiveThreads:o.z.boolean().nullish()}),B=async e=>{let{folderId:t,accessToken:a}=e,r=await (0,u.A)({method:"GET",headers:{"Cache-Control":"no-cache",Pragma:"no-cache",Expires:"0"},endpointVersion:"v1",endpoint:"/get-shared-folder-assets",params:{folderId:t},accessToken:a}),i=O.safeParse(r.data);if(!i.success)return i;let n=i.data,o=[...n.assets].reverse();return{...i,data:{...n,assets:o}}},F=e=>{let{dataType:t}=e;return(0,u.A)({method:"GET",apiURL:s.bN,apiServiceHost:d.VL,endpointVersion:"v1",endpoint:`/recommendation/weights/${t}`})}},7375:(e,t,a)=>{a.d(t,{e:()=>s});var r=a(7620),i=a(93696),n=a.n(i),o=a(24990);let s=()=>(0,r.useMemo)(()=>{if(o.S$)return{browser:{name:"",version:""},operatingSystem:{name:"",version:""},device:{type:"desktop",model:""},userAgent:""};let{userAgent:e}=window.navigator,t=new(n())(e),a=t.getBrowser(),r=t.getOS(),i=t.getDevice();return{browser:{name:a.name||"",version:a.version||""},operatingSystem:{name:r.name||"",version:r.version||""},device:{type:i.type||"desktop",model:i.model||""},userAgent:e}},[])},11098:(e,t,a)=>{a.d(t,{m:()=>s});var r=a(7620),i=a(64779),n=a(65667),o=a(54568);let s=(0,r.forwardRef)((e,t)=>{let a,{children:s,text:l,placement:d="top",id:u,onHoverFn:c,sx:p,arrowSx:h,childrenContainerClassName:m="",disabled:y,onClose:g,withArrow:v=!1,popperProps:b,disableInteractive:f=!0}=e,_=(0,r.useRef)((0,n.A)());return u&&(a=`${u}-${_.current}`),(0,o.jsx)(i.A,{"data-testid":"Tooltip",arrow:v,placement:d,title:l,id:a,disableInteractive:f,onOpen:c,onClose:g,disableFocusListener:y,disableHoverListener:y,disableTouchListener:y,slotProps:{tooltip:{sx:{bgcolor:"common.black",fontSize:"small",paddingX:"0.875rem",paddingY:"0.5rem",borderRadius:"0.5rem",...p}},arrow:{sx:h},popper:b},children:(0,o.jsx)("div",{ref:t,className:m,children:s})})})},13764:(e,t,a)=>{a.d(t,{OH:()=>d,Qs:()=>u});var r=a(7620),i=a(53549),n=a(24990),o=a(54568);let s={isReady:!1,isXS:!1,isAboveSM:!1,isBelowSM:!1,isSM:!1,isAboveMD:!1,isBelowMD:!1,isMD:!1,isAboveLG:!1,isBelowLG:!1,isLG:!1,isAboveXL:!1,isBelowXL:!1,isXL:!1,isAboveXXL:!1,isBelowXXL:!1,isXXL:!1,isAbove2XL:!1,isBelow2XL:!1,is2XL:!1,isAbove3XL:!1,isBelow3XL:!1,is3XL:!1,isAbove4XL:!1,isBelow4XL:!1,is4XL:!1,isTouchDevice:!0},l=(0,r.createContext)(s),d=e=>{var t;let{children:a}=e,[d,u]=(0,r.useState)(!1),c=(0,i.Ub)({minWidth:n.UZ.SM_UP}),p=(0,i.Ub)({minWidth:n.UZ.MD_UP}),h=(0,i.Ub)({minWidth:n.UZ.LG_UP}),m=(0,i.Ub)({minWidth:n.UZ.XL_UP}),y=(0,i.Ub)({minWidth:n.UZ.XXL_UP}),g=(0,i.Ub)({minWidth:n.UZ["2.5XL_UP"]}),v=(0,i.Ub)({minWidth:n.UZ["3XL_UP"]}),b=(0,i.Ub)({minWidth:n.UZ["4XL_UP"]}),f={isReady:d,isXS:!c,isAboveSM:c,isBelowSM:!c,isSM:c&&!p,isAboveMD:p,isBelowMD:!p,isMD:p&&!h,isAboveLG:h,isBelowLG:!h,isLG:h&&!m,isAboveXL:m,isBelowXL:!m,isXL:m&&!y,isAboveXXL:y,isBelowXXL:!y,isXXL:y&&!g,isAbove2XL:g,isBelow2XL:!g,is2XL:g&&!v,isAbove3XL:v,isBelow3XL:!v,is3XL:v&&!b,isAbove4XL:b,isBelow4XL:!b,is4XL:b,isTouchDevice:!n.S$&&(null==(t=window)?void 0:t.ontouchstart)!==void 0};(0,r.useEffect)(()=>{u(!0)},[]);let _=(0,r.useMemo)(()=>!d||n.S$?s:f,[d,f]);return(0,o.jsx)(l.Provider,{value:_,children:a})},u=()=>{let e=(0,r.useContext)(l);if(!e)throw Error("useResponsive must be used within a ResponsiveProvider");return e}},26538:(e,t,a)=>{a.d(t,{VS:()=>l,fP:()=>d,wr:()=>s});var r,i=a(72466),n=a(76468);class o{constructor(e){let{baseUrl:t}=e;this.baseUrl=t}async query(e,t,a,r){let i=arguments.length>4&&void 0!==arguments[4]&&arguments[4];return(0,n.A)({method:"POST",apiURL:this.baseUrl,endpointVersion:(null==a?void 0:a.version)||"v1",endpoint:"/graphql",timeout:null==a?void 0:a.timeout,data:{query:e,variables:t},sendMethod:"raw",headers:r,shouldAttachAnonymousIdHeader:!0,shouldAttachUserIdHeader:!0,shouldAttachUserStatusHeader:!0,shouldAttachPreReleaseHeader:null==a?void 0:a.shouldAttachPreReleaseHeader}).then(e=>{var t;return i?e:null==e||null==(t=e.data)?void 0:t.data})}}let s=function(e){let{baseUrl:t}=e;return new o({baseUrl:t})}({baseUrl:i.uG}),l=((r={}).V1="v1",r.V2="v2",r),d={getArtistSongs:(e,t,a,r,o)=>(0,n.A)({method:"GET",apiURL:i.uG,endpointVersion:"v1",endpoint:"/songs/artist-songs",params:{artistId:e,take:t,skip:a,albumId:r},shouldAttachPreReleaseHeader:o}),getArtistSfx:function(e,t,a){let r=arguments.length>3&&void 0!==arguments[3]?arguments[3]:"";return(0,n.A)({method:"GET",apiURL:i.uG,endpointVersion:"v1",endpoint:"/sfx/artistSfxs",params:{artistId:e,take:t,page:a,albumId:r}})}}},27170:(e,t,a)=>{a.d(t,{A:()=>n}),a(7620);var r=a(65736),i=a(54568);let n=e=>{let{children:t,childClassName:a,overwriteClassName:n,...o}=e;return(0,i.jsx)("div",{"data-testid":"LoadingPlaceholder",...o,children:(0,i.jsxs)("div",{className:(0,r.cn)("relative h-full w-full overflow-hidden rounded",a),children:[(0,i.jsx)("div",{className:(0,r.cn)("absolute top-0 left-0 h-[inherit] w-[inherit] overflow-hidden bg-gray-600",n)}),(0,i.jsx)("div",{className:"absolute top-0 left-0 h-full w-[200%] animate-shimmer bg-gradient-to-r from-gray-600 via-gray-300 to-gray-600 opacity-20"}),t]})})}},38564:(e,t,a)=>{a.d(t,{u:()=>n});var r=a(3548),i=a(99316);let n=(e,t)=>{let{isReady:a,getTreatment:n}=(0,i.O)(e,t),o=n();return(0,r.YW)({isReady:a,treatmentWithConfig:o}).with({isReady:!1},()=>({isReady:!1,isFeatureEnabled:!1,status:"pending"})).with({isReady:!0,treatmentWithConfig:{treatment:"on"}},()=>({isReady:!0,isFeatureEnabled:!0,status:"enabled"})).with({isReady:!0,treatmentWithConfig:r.P.union({treatment:r.P.string},void 0)},()=>({isReady:!0,isFeatureEnabled:!1,status:"disabled"})).exhaustive()}},55760:(e,t,a)=>{a.d(t,{F:()=>o,M:()=>s});var r=a(7620),i=a(32638),n=a(61608);let o=()=>{let e=(0,i.useQuery)({initialData:n.jH,queryKey:n.TJ,queryFn:()=>(0,n.c$)(),staleTime:1/0,refetchOnMount:!1,refetchOnReconnect:!1,refetchOnWindowFocus:!1});return(0,r.useEffect)(()=>{e.data&&(0,n.U2)(e.data)},[e.data]),e},s=()=>{let e=o();return{geoData:e.data?(0,n.Bj)(e.data):{}}}},68275:(e,t,a)=>{a.d(t,{$:()=>u,O:()=>d});var r,i=a(7620),n=a(74706),o=a(65736),s=a(11098),l=a(54568);let d=((r={}).white="white",r.warning="warning",r.gray="gray",r.lightGray="light-gray",r.gradient="gradient",r.default="default",r),u=(0,i.forwardRef)((e,t)=>{let{text:a="",children:r="",type:i="button",variant:u="contained",theme:c=d.default,size:p="md",isFullWidth:h=!1,customSpacingX:m="",customSpacingY:y="",textCase:g="original",textColor:v="",textHoverColor:b="",textAndBorderHoverColor:f="",onClickFn:_=()=>{},onHoverFn:L,onMouseUpFn:w,isHighlighted:A=!1,hasUnderline:x=!1,isDisabled:T=!1,hasPointerCursorWhenDisabled:S=!1,icon:E=null,startIcon:U=null,endIcon:k=null,iconSize:R="1x",iconClassNames:P,isLoaderShown:D=!1,shouldLoaderHideContent:C=!1,hasTooltip:N=!1,tooltipText:q="",tooltipId:J="",tooltipPlacement:V,label:I,classNames:M,autoFocus:O,nativeProps:B={}}=e;if(!a&&!r&&!E)return null;let F=u;E&&"circled"!==F&&(F="text");let X=(0,o.cn)("flex justify-center items-center","text"!==F&&"font-bold","text"!==F&&"rounded-full",h&&"w-full","upper"===g&&"uppercase","lower"===g&&"lowercase","capitalize"===g&&"capitalize",D&&"cursor-wait",S?"disabled:cursor-pointer":"disabled:cursor-not-allowed","disabled:text-invert disabled:bg-gray-300 disabled:border-gray-300","transition-colors"),j="";switch(F){case"circled":j=(0,o.cn)("disabled:text-gray-300 bg-transparent disabled:bg-transparent rounded-full border",E&&`${A?"border-accent":"border-gray-200"}`,E&&`${v||(A?"text-accent":"text-white")}`,c===d.gray&&"!text-white font-bold !bg-gray-400 !border-0 rounded-full hover:bg-gray-300",E&&`${b||(A?"text-primary-dark hover:border-primary-dark":"hover:text-accent hover:border-accent")}`);break;case"text":j=(0,o.cn)("disabled:text-gray-300 bg-transparent disabled:bg-transparent",v||(A?"":"text-white"),E&&`${v||(A?"text-accent":"text-gray-100")} ${b||"hover:text-white"}`,!D&&(b||"hover:text-accent"),x&&"underline");break;case"outlined":j=(0,o.cn)("border disabled:text-gray-300 disabled:bg-transparent",v||"text-white",c===d.default&&!A&&"border-white",c===d.white&&"bg-white rounded-full border border-white hover:text-invert hover:bg-gray-50 hover:border-gray-50",c===d.warning&&"text-white bg-transparent rounded-full border border-error hover:text-error hover:bg-gray-50 hover:border-gray-50",A&&"border-accent","bg-transparent",!D&&(f||"hover:text-invert hover:bg-white"));break;default:j=(0,o.cn)(c===d.default&&"text-primary-contrast bg-primary",!D&&c===d.default&&"transition-all duration-300 hover:bg-primary-dark",c===d.white&&"text-black bg-white rounded-full border border-white hover:text-invert hover:bg-gray-50 hover:border-gray-50",c===d.gradient&&"text-black bg-gradient-to-r from-orange-100 to-yellow-100 rounded-full hover:text-invert hover:bg-gray-50 hover:border-gray-50",c===d.gray&&"text-white font-bold bg-gray-400 rounded-full hover:bg-gray-300",c===d.lightGray&&"text-black bg-gray-50 hover:bg-gray-100")}let $="",Q="",z="";switch(p){case"xxs":$=`${y||"py-1"} ${m||"px-5.5"}`,Q="text-sm leading-3",E&&($="w-4 h-4","circled"===F&&($="w-7 h-7"));break;case"xs":$=`${y||"py-1"} ${m||"px-7"}`,Q="text-sm leading-3",E&&($="w-6 h-6","circled"===F&&($="w-7 h-7"));break;case"sm":$=`${y||"py-2"} ${m||"px-8"}`,Q="text-sm leading-4",E&&($="w-8 h-8","circled"===F&&($="w-9 h-9",z="w-4 h-4"));break;case"md":default:$=`${y||"py-2.5"} ${m||"px-12"}`,Q="text-sm leading-4",E&&($="w-10 h-10","circled"===F&&(z="w-6 h-6"));break;case"lg":$=`${y||"py-3"} ${m||"px-13"}`,Q="text-base leading-5",E&&($="w-12 h-12","circled"===F&&($="w-11 h-11",z="w-7.5 h-7.5"));break;case"xl":$=`${y||"py-4"} ${m||"px-14.5"}`,Q="text-lg leading-5",E&&($="w-14 h-14","circled"===F&&($="w-13 h-13",z="w-9 h-9"));break;case"2xl":$=`${y||"py-5"} ${m||"px-16"}`,Q="text-xl leading-5",E&&($="w-16 h-16","circled"===F&&($="w-16 h-16",z="w-11 h-11"));break;case"3xl":$=`${y||"py-7"} ${m||"px-18"}`,Q="text-3.5xl leading-6",E&&($="w-20 h-20","circled"===F&&($="w-20 h-20",z="w-14 h-14"))}"text"===F&&($="p-0"),E&&($=(0,o.cn)($,"grid place-items-center","circled"!==F&&"p-0"));let H=function(){let{icon:e=null}=arguments.length>0&&void 0!==arguments[0]?arguments[0]:{};if(D)return(0,l.jsx)("span",{"data-testid":"renderIconOrLoader",className:(0,o.cn)("flex min-h-5 min-w-5 items-center justify-center",!e&&"absolute",!e&&!C&&"-left-6"),children:(0,l.jsx)("svg",{className:"animate-rotateSpinnerWrapper",width:"15px",height:"15px",viewBox:"0 0 66 66",xmlns:"http://www.w3.org/2000/svg",children:(0,l.jsx)("circle",{fill:"none",strokeWidth:"6",strokeLinecap:"round",strokeDasharray:"187",strokeDashoffset:"0",cx:"33",cy:"33",r:"30",className:(0,o.cn)("origin-center animate-rotateSpinnerInner","contained"===F?"stroke-gray-900":"stroke-white")})})});if(e){let t=(0,o.cn)("flex items-center justify-center");return t="circled"===F?(0,o.cn)(t,z,P):(0,o.cn)(t,"min-w-5 min-h-5",P),(0,l.jsx)("span",{"data-testid":"renderIconOrLoader",className:t,children:(0,l.jsx)(n.g,{icon:e,size:R})})}return null},G=()=>(0,l.jsxs)("button",{"data-testid":"renderButton",...B,"aria-label":I,type:i,className:(0,o.cn)(X,j,$,Q,M),disabled:T,onClick:e=>{D||_(e)},onMouseEnter:e=>{null==L||L(e)},onMouseUp:e=>{"text"===F||D||null==w||w(e)},ref:t,autoFocus:O,children:[C&&D&&(0,l.jsx)("span",{className:"absolute min-h-5 min-w-5",children:H()}),(0,l.jsx)("span",{className:(0,o.cn)("relative flex min-h-5 items-center justify-center gap-1",C&&D&&"opacity-0"),children:E?H({icon:E}):(0,l.jsxs)(l.Fragment,{children:[H({icon:U}),(0,l.jsx)("span",{className:"whitespace-nowrap",children:a||r}),k&&(0,l.jsx)("span",{className:(0,o.cn)("flex min-h-5 min-w-5 items-center justify-center",P),children:(0,l.jsx)(n.g,{icon:k,size:R})})]})})]});return N&&null!=q&&q.trim().length?(0,l.jsx)(s.m,{text:q,id:J,placement:V,children:G()}):G()})},72988:(e,t,a)=>{a.d(t,{$W:()=>s,C5:()=>y,DC:()=>h,Eb:()=>l,Oz:()=>g,Z:()=>c,bl:()=>u,r5:()=>o,so:()=>d,uv:()=>p,ux:()=>m});var r=a(16596);let i="uql pop up",n="Calendly pop up",o=e=>{r.default.track({name:"LeadInfoUpdated",eventData:{is_lead_type_status_new:e.hasJourneyChanged,existing_lead_journey:e.previousLeadJourney??"",updated_lead_journey:e.updatedLeadJourney??"",trigger:e.trigger,click_source:e.clickSource}})},s=e=>{r.default.track({name:"pop-up open",eventData:{pop_up_name:e.dialogName,click_source:e.clickSource,trigger_button:e.triggerButton}})},l=e=>{r.default.track({name:"pop-up open",eventData:{pop_up_name:n,click_source:e.clickSource??null,modal_title:e.modalTitle}})},d=e=>{r.default.track({name:"pop-up close",eventData:{click_source:i,pop_up_name:e.dialogName,section_title:e.sectionTitle,section_order:e.sectionOrder,trigger_button:e.triggerButton}})},u=e=>{r.default.track({name:"pop-up close",eventData:{pop_up_name:n,click_source:e.clickSource??null,button_name:e.buttonName??null}})},c=e=>{r.default.track({name:"button clicked",eventData:{click_source:i,button_text:e.buttonText,button_name:e.buttonName,component:e.component,section_title:e.sectionTitle,section_order:e.sectionOrder}})},p=e=>{r.default.track({name:"button clicked",eventData:{button_name:"date and time",click_source:e.clickSource??null,modal_title:e.modalTitle}})},h=(e,t)=>e?void r.default.track({name:"checkbox_on",eventData:{click_source:i,checkbox_text:t.checkboxText,pop_up_name:t.popUpName,section_title:t.sectionTitle,section_order:t.sectionOrder}}):void r.default.track({name:"checkbox_off",eventData:{click_source:i,checkbox_text:t.checkboxText,pop_up_name:t.popUpName,section_title:t.sectionTitle,section_order:t.sectionOrder}}),m=e=>{r.default.track({name:"form submitted successfully",eventData:{form_source:"uql form",click_source:i,pop_up_name:e.popUpName,get_in_touch_method:e.getInTouchMethod??null,is_individual:e.isIndividual??!1}})},y=e=>{r.default.track({name:"form submitted successfully",eventData:{form_source:"Calendly form",button_name:"Schedule Event",pop_up_name:n,click_source:e.clickSource??null}})},g=e=>{r.default.track({name:"error_message_pop_up",eventData:{click_source:i,section_title:e.sectionTitle,section_order:e.sectionOrder??null,trigger:e.trigger,get_in_touch_method:e.getInTouchMethod??null,is_individual:e.isIndividual??!1}})}},75087:(e,t,a)=>{a.d(t,{CU:()=>o,M5:()=>n,Rs:()=>r,ol:()=>i});let r="control",i={anonymous:"anonymous",user:"user"},n={perAction:"perAction",perAnonymous:"perAnonymous",perSession:"perSession"},o="exp"},78349:(e,t,a)=>{a.d(t,{T:()=>p,u:()=>h});var r=a(22875),i=a(32638),n=a(21797),o=a(83614),s=a(72988),l=a(78025);let d=Object.values(o.L_),u=Object.values(o.Ji),c=async()=>{var e,t;let a=await (0,o.x6)();if(!a)return null;let{leadJourney:r}=(0,l.xA)(),i=(null==(e=a.leadInfo)?void 0:e.classification)??"",n=r??"",{journey:s,bftJourney:c}=(t=a.journey)&&0!==t.length?{journey:t.find(e=>d.includes(e))||"",bftJourney:t.find(e=>u.includes(e))||""}:{journey:"",bftJourney:""},p=s!==n;(0,l.X4)(i),(0,l.rL)(s),(0,l.Dv)(c);let h=[o.L_.UQL_S1,o.L_.UQL_S2,o.L_.UQL_S3,o.L_.UQL_S4,o.L_.UQL_S5].includes(s),m=[o.Jq.PL,o.Jq.UQL,o.Jq.SQL,o.Jq.ClosedWon,o.Jq.ClosedLost,o.Jq.Opportunity].includes(i);return{...a,hasJourneyChanged:p,previousJourney:n,updatedLeadJourney:s,isUqlJourney:h,isPLJourney:s===o.L_.PL,isSQLJourney:s===o.L_.SQL,isPLBFTJourney:c===o.Ji.PL_BFT,isSQLBFTJourney:c===o.Ji.SQL_BFT,isPLClassification:i===o.Jq.PL,isSQLClassification:i===o.Jq.SQL,isEnterpriseClassification:m}},p=()=>{var e,t,a,s,d,u,p,h,m,y,g;let v="authenticated"===(0,n.useSession)().status,b=(0,r.useQueryClient)(),f=(0,i.useQuery)({queryKey:o.y0,queryFn:async()=>{let e=await c();return b.setQueryData(o.gC,e),e},staleTime:18e5,refetchOnWindowFocus:!1,retry:!1,enabled:v}),_=(0,i.useQuery)({queryKey:[...o.y0,"cookie",f.data],queryFn:l.xA,enabled:v}),L=!!_.data&&(_.data.leadJourney===o.L_.UQL_S1||_.data.leadJourney===o.L_.UQL_S3),w=!!_.data&&(_.data.leadJourney===o.L_.UQL_S1||_.data.leadJourney===o.L_.UQL_S3||_.data.leadJourney===o.L_.UQL_S4);return{leadJourneyQuery:f,leadJourneyCookieQuery:_,shouldShowUqlJourney:L,shouldShowUqlJourneyExtended:w,isPLJourney:(null==(e=_.data)?void 0:e.isPLJourney)??!1,isSQLJourney:(null==(t=_.data)?void 0:t.isSQLJourney)??!1,isPLBFTJourney:(null==(a=f.data)?void 0:a.isPLBFTJourney)??!1,isSQLBFTJourney:(null==(s=f.data)?void 0:s.isSQLBFTJourney)??!1,isAnyBFTJourney:(null==(d=f.data)?void 0:d.isPLBFTJourney)||(null==(u=f.data)?void 0:u.isSQLBFTJourney)||!1,isSQLClassification:(null==(p=f.data)?void 0:p.isSQLClassification)??!1,isPLClassification:(null==(h=f.data)?void 0:h.isPLClassification)??!1,isEnterpriseClassification:(null==(m=f.data)?void 0:m.isEnterpriseClassification)??!1,companyName:(null==(y=f.data)||null==(g=y.leadInfo)?void 0:g.companyName)||null}},h=()=>{let e="authenticated"===(0,n.useSession)().status,{leadClassification:t}=(0,l.Nv)(),{leadJourneyQuery:a}=p();return(0,i.useQuery)({queryKey:o.gC,queryFn:async()=>{if(!a.isStale)return a.data;let e=await a.refetch();return null!=e&&e.data&&(0,s.r5)({trigger:"UQL offline solution",previousLeadJourney:e.data.previousJourney,updatedLeadJourney:e.data.updatedLeadJourney,hasJourneyChanged:e.data.hasJourneyChanged}),e},refetchInterval:18e5,refetchOnWindowFocus:!1,enabled:e&&!!t})}},80682:(e,t,a)=>{a.d(t,{Bx:()=>h,Ot:()=>g,YH:()=>y,Z4:()=>u,cR:()=>v,rz:()=>m});var r=a(60048),i=a(72466),n=a(24990),o=a(97335),s=a(76468),l=a(63875),d=a(85593);let u={[n.E7.footage]:r.Assets.AssetType.FOOTAGE,[n.E7.templates]:r.Assets.AssetType.TEMPLATE,[n.E7.music]:r.Assets.AssetType.MUSIC,[n.E7.sfx]:r.Assets.AssetType.SFX,[n.E7.LUTs]:r.Assets.AssetType.LUT,[n.E7.album]:r.Assets.AssetType.SAMPLE,[n.E7.artist]:r.Assets.AssetType.SAMPLE,[n.E7.voiceover]:r.Assets.AssetType.VOICE_OVER,[n.E7.aiMedia]:r.Assets.AssetType.GENERATED_VISUAL,[n.E7.aiImage]:r.Assets.AssetType.GENERATED_IMAGE,[n.E7.aiVideo]:r.Assets.AssetType.GENERATED_VIDEO},c=async e=>{var t;let{assetId:a,assetFormatId:r,assetTypeId:n}=e;return(0,s.A)({method:"POST",apiURL:i.UK,apiServiceHost:o.W_,endpointVersion:"v1",endpoint:"/download/direct",data:{assetId:a,assetFormatId:r,assetTypeId:n,applicationTypeId:"1",subscriptionId:null==(t=d.P.user)?void 0:t.id},shouldAttachRequiredParams:!0})},p=function(e){let t=arguments.length>1&&void 0!==arguments[1]?arguments[1]:{};return(0,s.A)({method:"POST",apiURL:i.UK,apiServiceHost:o.W_,endpointVersion:"v1",endpoint:"/download/history/subscription/getUserAssetDownloadDetails",data:{mapAssetTypeToIds:e},shouldAttachRequiredParams:!0,shouldAttachPreReleaseHeader:t.isPreReleaseEnabled})},h=async e=>{let{assetId:t,assetFormatId:a,assetTypeId:r}=e;return c({assetId:t,assetFormatId:a,assetTypeId:r}).then(e=>{var t;let a=(0,l.S)();if(null!=e&&null!=(t=e.data)&&t.downloadUrls){let[t]=e.data.downloadUrls;e.data.downloadUrl=t,a.invalidateQueries(["download-status"]),delete e.data.downloadUrls}return null==e?void 0:e.data})},m=e=>{let{page:t,assetsInPage:a,assetTypeId:r,filterByTime:n,scope:l}=e;return(e=>{let{page:t,assetsInPage:a,assetTypeId:r,filterByTime:n,scope:l}=e;return(0,s.A)({method:"POST",apiURL:i.UK,apiServiceHost:o.W_,endpointVersion:"v1",endpoint:"/download/history/subscription",data:{page:t,take:a,assetTypeId:r,filterByTime:n,...l&&{scope:l}},shouldAttachRequiredParams:!0})})({page:t,assetsInPage:a,assetTypeId:r,filterByTime:n,scope:l}).then(e=>null==e?void 0:e.data)},y=e=>{let{assetTypeId:t,assetId:a}=e;return(e=>{let{assetTypeId:t,assetId:a}=e;return(0,s.A)({method:"GET",apiURL:i.UK,apiServiceHost:o.W_,endpointVersion:"v1",endpoint:"/license/asset",params:{assetTypeId:t,assetId:a},shouldAttachRequiredParams:!0})})({assetTypeId:t,assetId:a}).then(e=>{e.data.url&&window.open(e.data.url,"_self")})},g=e=>(e=>{let{assetId:t}=e;return(0,s.A)({method:"GET",responseType:"blob",apiURL:i.UK,apiServiceHost:o.W_,endpointVersion:"v1",endpoint:"/cuesheet/asset",params:{assetType:"music",assetId:t},shouldAttachRequiredParams:!0})})({assetId:e}),v=function(e){let t=arguments.length>1&&void 0!==arguments[1]?arguments[1]:{};return p(e,t).then(e=>null==e?void 0:e.data)}},90180:(e,t,a)=>{a.d(t,{R2:()=>s,n4:()=>o,qS:()=>d});var r=a(72466),i=a(27732);let n=`${r.w4}/artlist-images`,o=function(){let e=arguments.length>0&&void 0!==arguments[0]?arguments[0]:"";return/^https?:\/\/([a-zA-Z0-9-]+\.)?imgix\.net\//.test(e)},s=(e,t)=>{let a=e;if(null!=e&&e.includes(n)&&(a=e.replace(n,r.Vs)),!o(a))return a;let s=(0,i.G)({auto:"format",w:t});return`${a}${s}`},l=[640,768,1024,1280,1440,1600,1920,3840],d=e=>l.find(t=>e<t)||l[l.length-1]},99316:(e,t,a)=>{a.d(t,{O:()=>_});var r=a(7620),i=a(52045),n=a(25002),o=a(96240),s=a(91608),l=a(84768),d=a(37562),u=a.n(d),c=a(72466),p=a(21797),h=a(55760),m=a(7375),y=a(87992),g=a(78349),v=a(36634),b=a(75087);let f=(0,o.eU)({}),_=(e,t)=>{var a,o;let d,_,L=(()=>{let e=l.A.get(v.WT),{browser:t,operatingSystem:a,device:i}=(0,m.e)(),{geoData:n}=(0,h.M)(),o="authenticated"===(0,p.useSession)().status,{data:d}=(0,y.J)(),{isPLJourney:b,isPLBFTJourney:_}=(0,g.T)(),[L,w]=(0,s.fp)(f);return((0,r.useEffect)(()=>{(()=>{var r,s,l,p,h,m;let y={};if(y.device=i.type||"",y.os=a.name||"",y.browser=t.name||"",!c.tb&&null!=(r=window)&&null!=(s=r.location)&&s.host&&(y.host=window.location.host),e&&(y.anonymousID=e),null!=n&&n.countryCode&&(y.countryCode=null==n||null==(l=n.countryCode)?void 0:l.toUpperCase()),y.isPLJourney=b,y.isPLBFTJourney=_,o&&d){let e={...y,userID:(null==d||null==(p=d.id)?void 0:p.toString())||"",userStatus:d.subscription?"paid":"trial",userRole:(null==d||null==(h=d.subscription)||null==(m=h.team)?void 0:m.role)||""};w(t=>u()(t,e)?t:e)}else{let e={...y,userStatus:"guest"};w(t=>u()(t,e)?t:e)}})()},[n,o,d,b,_]),e)?L:{}})(),{manager:w}=(0,i.p)(),A=null==w?void 0:w.split(e),x=(d=null==L||null==(a=L.anonymousID)?void 0:a.toString(),(_=null==L||null==(o=L.userID)?void 0:o.toString())&&t?{matchingKey:_,bucketingKey:d}:(null==A?void 0:A.trafficType)===b.ol.user&&_?_:d),{client:T,isReady:S}=(0,n.V)({splitKey:x,attributes:L});return{isReady:S,getTreatment:()=>{if(S&&T)return T.getTreatmentWithConfig(e,L)}}}}}]);
//# sourceMappingURL=90000-bf91cc47787d0baf.js.map
//# debugId=0949d788-4c44-5d1a-adf0-1045b551292e
