
!function(){try{var e="undefined"!=typeof window?window:"undefined"!=typeof global?global:"undefined"!=typeof globalThis?globalThis:"undefined"!=typeof self?self:{},n=(new e.Error).stack;n&&(e._sentryDebugIds=e._sentryDebugIds||{},e._sentryDebugIds[n]="8a2ca72b-3f3b-5ee1-ba4a-91ba164c4812")}catch(e){}}();
(self.webpackChunk_N_E=self.webpackChunk_N_E||[]).push([[15566],{1494:(e,t,a)=>{"use strict";a.d(t,{q:()=>r});let r={songLicenseForChurnedUsers:"ff_song-license-for-churned",pendingTeamMember:"ff__pending-team-member",businessFreeTrial:"ff__business-free-trial",switchToMonthly:"ff__switch-to-monthly",firstAssetInArtboardPopup:"ff__first_asset_in_artboard_popup",kickedUserPopup:"ff__kicked-user-popup",songMatchYoutube:"ff__song-match-youtube",pendingActions:"ff__pending-actions",browserFingerprinting:"ff__browser-fingerprinting",veo31Model:"ff__veo31-model",trendingSongsRemoveYouTubeViolationChanges:"ff__trending-songs-remove-youtube-violation-changes",holidayPromotion2025:"ff__holiday-promotion-2025",newTeamInvitationMessage:"ff__new-team-invitation-message",visualAiMobile:"ff__visual-ai-mobile",teamAICreditUsage:"ff__team_ai_credit_usage",textToImageModelSelect:"ff__text-to-image-model-select",madeWithAi:"ff__made-with-ai",contactSalesNewField:"ff__contact-sales-new-field",toolkitNav:"ff__toolkit-nav",pricingPageRedesign:"ff__pricing-page-redesign",aiModelsDynamicConfiguration:"ff__ai-models-dynamic-configuration",autoAspectRatio:"ff__auto-aspect-ratio"}},2716:(e,t,a)=>{"use strict";a.d(t,{K:()=>y,Y:()=>x});var r=a(8897),i=a(9940),n=a(49089),s=a(75643),o=a(86789),l=a(3548),d=a(11161),c=a(80752),u=a(62511),p=a(17208),m=a(98512),g=a(54568);let h=()=>(0,g.jsxs)("div",{className:"relative flex items-center justify-center w-4 h-4",children:[(0,g.jsx)("div",{className:"absolute rounded-sm border border-solid border-black aspect-[16/9] w-4"}),(0,g.jsx)("div",{className:"absolute rounded-sm border border-solid border-black aspect-[9/16] w-[9px]"})]}),x=e=>{let{aspectRatio:t}=e;return(0,g.jsx)("div",{className:"relative flex aspect-square w-7 shrink-0 items-center justify-center rounded bg-gray-50",children:(0,l.YW)(t).with(c.gl.AUTO,()=>(0,g.jsx)(h,{})).otherwise(()=>(0,g.jsx)(o.P.div,{layout:!0,style:{aspectRatio:(0,l.YW)(t).with(c.gl.LANDSCAPE_16X9,()=>"16 / 9").with(c.gl.SQUARE,()=>"1").with(c.gl.PORTRAIT_9X16,()=>"9 / 16").with(c.gl.PORTRAIT_2X3,()=>"2 / 3").with(c.gl.LANDSCAPE_3X2,()=>"3 / 2").exhaustive(),width:(0,l.YW)(t).with(c.gl.LANDSCAPE_16X9,()=>16).with(c.gl.SQUARE,()=>16).with(c.gl.PORTRAIT_9X16,()=>9).with(c.gl.PORTRAIT_2X3,()=>11).with(c.gl.LANDSCAPE_3X2,()=>16).exhaustive()},className:"absolute rounded-sm border border-solid border-black will-change-transform"}))})},y=Object.assign(e=>(0,g.jsx)(p.Do,{ariaLabelPrefix:"aspect ratio",renderValue:e=>(0,g.jsxs)("div",{className:"inline-flex items-center gap-2 pr-2",children:[e?(0,g.jsx)(x,{aspectRatio:e}):null,(0,u.Hj)(e)]}),...e}),{MenuItem:e=>{let{children:t,...a}=e;return(0,g.jsxs)(n.A,{role:"option",...a,className:"flex gap-3 p-3 font-medium text-gray-100",sx:e=>({[`.${r.A.root}`]:{opacity:0,transition:e.transitions.create("opacity",{duration:e.transitions.duration.shortest})},[`&.${s.A.selected} .${r.A.root}`]:{opacity:1}}),children:[t,(0,g.jsx)(i.A,{className:"flex flex-grow justify-end",children:(0,g.jsx)(d.N,{})})]})},AspectRatioIcon:m.B})},4709:(e,t,a)=>{"use strict";a.d(t,{A9:()=>M,Bt:()=>R,Ct:()=>j,EE:()=>A,Es:()=>G,Fi:()=>w,Fn:()=>P,L:()=>h,Lc:()=>$,MS:()=>T,No:()=>v,RN:()=>g,SH:()=>C,Uv:()=>D,ZZ:()=>k,ac:()=>B,cP:()=>m,gR:()=>E,jh:()=>I,mw:()=>O,o4:()=>b,qw:()=>f,sp:()=>N,tx:()=>L,uP:()=>u,x5:()=>S,x6:()=>p,zz:()=>_});var r,i,n,s=a(41935),o=a(72466),l=a(24990),d=a(97335),c=a(76468);let u={[l.E7.footage]:l.qy.Clip,[l.E7.templates]:l.qy.Template,[l.E7.sfx]:l.qy.Track,[l.E7.music]:l.qy.Song,[l.E7.LUTs]:l.qy.Lut,[l.E7.aiMedia]:l.qy.AIMedia,[l.E7.aiImage]:l.qy.AIImage,[l.E7.aiVideo]:l.qy.AIVideo,[l.E7.album]:l.qy.Album,[l.E7.artist]:l.qy.Artist,[l.E7.voiceover]:l.qy.Voiceover},p=s.z.object({id:s.z.string(),assetId:s.z.string(),assetType:s.z.nativeEnum(l.qy),createdAt:s.z.string(),updatedAt:s.z.string(),addedBy:s.z.string().nullish(),hasActiveThreads:s.z.boolean().nullish()}),m=((r={}).ALPHABETICAL="alphabetical",r.LAST_UPDATED="lastUpdated",r.CREATED_AT="createdAt",r),g=((i={}).ASC="ASC",i.DESC="DESC",i),h=((n={}).ByMe="ByMe",n.ByAnyMember="ByAnyMember",n.AsAbleToEdit="AsAbleToEdit",n),x=e=>{let{assets:t,directoryTypeName:a,directoryId:r}=e;return(0,c.A)({method:"POST",apiURL:o.bN,apiServiceHost:d.VL,endpointVersion:"v1",endpoint:"/asset",data:{assetItems:t,directoryTypeName:a,directoryId:r}})},y=e=>{let{assetId:t,assetType:a,directoryTypeName:r,directoryId:i}=e;return(0,c.A)({method:"DELETE",apiURL:o.bN,apiServiceHost:d.VL,endpointVersion:"v1.1",endpoint:"/asset",data:{assetId:t,assetType:a,directoryTypeName:r,directoryId:i}})},f=e=>{let{assetTypes:t,take:a,skip:r,orderByKey:i=m.LAST_UPDATED,orderDirection:n=g.DESC,ownedBy:s}=e;return(e=>{let{directoryType:t,assetTypes:a,take:r,skip:i,orderByKey:n,orderDirection:s,ownedBy:l}=e;return(0,c.A)({method:"GET",apiURL:o.bN,apiServiceHost:d.VL,endpointVersion:"v1",endpoint:"/directory",params:{directoryType:t,directoryAssetTypes:a,take:r,skip:i,orderByKey:n,orderByDirection:s,ownedBy:l}})})({directoryType:"FOLDER",assetTypes:t,take:a,skip:r,orderByKey:i,orderDirection:n,ownedBy:s}).then(e=>e.data)},j=(e,t)=>(e=>{let{directoryTypeName:t,assetId:a,assetType:r}=e;return(0,c.A)({method:"GET",apiURL:o.bN,apiServiceHost:d.VL,endpointVersion:"v1",endpoint:"/asset/directories",params:{directoryTypeName:t,assetId:a,assetType:r}})})({directoryTypeName:"FOLDER",assetId:e,assetType:t}).then(e=>e.data),v=(e,t)=>(e=>{let{name:t,description:a,directoryTypeName:r}=e;return(0,c.A)({method:"POST",apiURL:o.bN,apiServiceHost:d.VL,endpointVersion:"v1",endpoint:"/directory",data:{name:t,description:a,directoryTypeName:r}})})({name:e,description:t,directoryTypeName:"FOLDER"}).then(e=>e.data),b=e=>(e=>{let{collectionId:t}=e;return(0,c.A)({method:"DELETE",apiURL:o.bN,apiServiceHost:d.VL,endpointVersion:"v1",endpoint:`/directory/${t}`,_endpointMask:"/directory/:collectionId"})})({collectionId:e}).then(e=>e.data),w=(e,t)=>(e=>{let{collectionId:t,collectionName:a,collectionDescription:r,collectionTags:i}=e;return(0,c.A)({method:"PATCH",apiURL:o.bN,apiServiceHost:d.VL,endpointVersion:"v1",endpoint:`/directory/${t}`,_endpointMask:"/directory/:collectionId",data:{name:a,...r&&{description:r},...i&&{tags:i}}})})({collectionId:e,...t}).then(e=>e.data),_=e=>(e=>{let{assets:t,directoryTypeName:a,toDictionaryResponse:r=!0}=e;return(0,c.A)({method:"POST",apiURL:o.bN,apiServiceHost:d.VL,endpointVersion:"v1",endpoint:"/asset/by-ids",data:{directoryTypeName:a,assetItems:t,toDictionaryResponse:r}})})({assets:e,directoryTypeName:"FAVORITE",toDictionaryResponse:!1}),C=function(e){let{take:t,skip:a,order:r,orderByKey:i}=arguments.length>1&&void 0!==arguments[1]?arguments[1]:{};return(e=>{let{directoryTypeName:t,assetTypes:a,take:r,skip:i,order:n,orderByKey:s}=e;return(0,c.A)({method:"GET",apiURL:o.bN,apiServiceHost:d.VL,endpointVersion:"v1.1",endpoint:"/asset",params:{directoryTypeName:t,assetTypes:a.toString(),take:r,skip:i,order:n,orderByKey:s}})})({directoryTypeName:"FAVORITE",assetTypes:e,take:t,skip:a,order:r,orderByKey:i})},T=e=>x({assets:e,directoryTypeName:"FAVORITE"}),I=(e,t)=>x({assets:e,directoryTypeName:"FOLDER",directoryId:t}),E=(e,t)=>I([{id:e,type:l.qy.Song}],t),A=(e,t)=>I([{id:e,type:l.qy.Track}],t),k=(e,t)=>I([{id:e,type:l.qy.Clip}],t),N=(e,t)=>y({assetId:e,assetType:t,directoryTypeName:"FAVORITE"}),S=(e,t,a)=>y({assetId:e,assetType:t,directoryTypeName:"FOLDER",directoryId:a}),M=(e,t)=>S(e,l.qy.Song,t),O=(e,t)=>S(e,l.qy.Track,t),L=(e,t)=>S(e,l.qy.Clip,t),P=(e,t)=>S(e,l.qy.Template,t),R=(e,t)=>S(e,l.qy.Voiceover,t),G=(e,t)=>S(e,l.qy.Lut,t),B=(e,t,a)=>S(e,a,t),U=s.z.object({name:s.z.string(),assetType:s.z.string()}),F=s.z.object({assets:s.z.array(p),folderName:s.z.string(),folderDescription:s.z.string().nullable().optional(),ownerName:s.z.string().nullish(),ownerEmail:s.z.string().nullish(),isCollaborative:s.z.boolean().nullish(),numberOfCollaborators:s.z.number().nullish(),tags:s.z.array(U.optional()).optional(),hasActiveThreads:s.z.boolean().nullish()}),$=async e=>{let{folderId:t,accessToken:a}=e,r=await (0,c.A)({method:"GET",headers:{"Cache-Control":"no-cache",Pragma:"no-cache",Expires:"0"},endpointVersion:"v1",endpoint:"/get-shared-folder-assets",params:{folderId:t},accessToken:a}),i=F.safeParse(r.data);if(!i.success)return i;let n=i.data,s=[...n.assets].reverse();return{...i,data:{...n,assets:s}}},D=e=>{let{dataType:t}=e;return(0,c.A)({method:"GET",apiURL:o.bN,apiServiceHost:d.VL,endpointVersion:"v1",endpoint:`/recommendation/weights/${t}`})}},7375:(e,t,a)=>{"use strict";a.d(t,{e:()=>o});var r=a(7620),i=a(93696),n=a.n(i),s=a(24990);let o=()=>(0,r.useMemo)(()=>{if(s.S$)return{browser:{name:"",version:""},operatingSystem:{name:"",version:""},device:{type:"desktop",model:""},userAgent:""};let{userAgent:e}=window.navigator,t=new(n())(e),a=t.getBrowser(),r=t.getOS(),i=t.getDevice();return{browser:{name:a.name||"",version:a.version||""},operatingSystem:{name:r.name||"",version:r.version||""},device:{type:i.type||"desktop",model:i.model||""},userAgent:e}},[])},9798:(e,t,a)=>{"use strict";a.d(t,{F:()=>n});var r=a(32638),i=a(87790);let n=()=>(0,r.useQuery)({queryKey:["gen-ai-image-to-image-style-default"],queryFn:async()=>{let e=await (0,i.p)({page:1,assetType:"generatedImage",feature:"imageToImage"});return(null==e?void 0:e[0])||{id:"9f26a474-80c9-4a53-b610-48fc9926d5a4",imageGenerationCost:0,name:""}},refetchOnWindowFocus:!1,staleTime:1/0})},11098:(e,t,a)=>{"use strict";a.d(t,{m:()=>o});var r=a(7620),i=a(64779),n=a(65667),s=a(54568);let o=(0,r.forwardRef)((e,t)=>{let a,{children:o,text:l,placement:d="top",id:c,onHoverFn:u,sx:p,arrowSx:m,childrenContainerClassName:g="",disabled:h,onClose:x,withArrow:y=!1,popperProps:f,disableInteractive:j=!0}=e,v=(0,r.useRef)((0,n.A)());return c&&(a=`${c}-${v.current}`),(0,s.jsx)(i.A,{"data-testid":"Tooltip",arrow:y,placement:d,title:l,id:a,disableInteractive:j,onOpen:u,onClose:x,disableFocusListener:h,disableHoverListener:h,disableTouchListener:h,slotProps:{tooltip:{sx:{bgcolor:"common.black",fontSize:"small",paddingX:"0.875rem",paddingY:"0.5rem",borderRadius:"0.5rem",...p}},arrow:{sx:m},popper:f},children:(0,s.jsx)("div",{ref:t,className:g,children:o})})})},13764:(e,t,a)=>{"use strict";a.d(t,{OH:()=>d,Qs:()=>c});var r=a(7620),i=a(53549),n=a(24990),s=a(54568);let o={isReady:!1,isXS:!1,isAboveSM:!1,isBelowSM:!1,isSM:!1,isAboveMD:!1,isBelowMD:!1,isMD:!1,isAboveLG:!1,isBelowLG:!1,isLG:!1,isAboveXL:!1,isBelowXL:!1,isXL:!1,isAboveXXL:!1,isBelowXXL:!1,isXXL:!1,isAbove2XL:!1,isBelow2XL:!1,is2XL:!1,isAbove3XL:!1,isBelow3XL:!1,is3XL:!1,isAbove4XL:!1,isBelow4XL:!1,is4XL:!1,isTouchDevice:!0},l=(0,r.createContext)(o),d=e=>{var t;let{children:a}=e,[d,c]=(0,r.useState)(!1),u=(0,i.Ub)({minWidth:n.UZ.SM_UP}),p=(0,i.Ub)({minWidth:n.UZ.MD_UP}),m=(0,i.Ub)({minWidth:n.UZ.LG_UP}),g=(0,i.Ub)({minWidth:n.UZ.XL_UP}),h=(0,i.Ub)({minWidth:n.UZ.XXL_UP}),x=(0,i.Ub)({minWidth:n.UZ["2.5XL_UP"]}),y=(0,i.Ub)({minWidth:n.UZ["3XL_UP"]}),f=(0,i.Ub)({minWidth:n.UZ["4XL_UP"]}),j={isReady:d,isXS:!u,isAboveSM:u,isBelowSM:!u,isSM:u&&!p,isAboveMD:p,isBelowMD:!p,isMD:p&&!m,isAboveLG:m,isBelowLG:!m,isLG:m&&!g,isAboveXL:g,isBelowXL:!g,isXL:g&&!h,isAboveXXL:h,isBelowXXL:!h,isXXL:h&&!x,isAbove2XL:x,isBelow2XL:!x,is2XL:x&&!y,isAbove3XL:y,isBelow3XL:!y,is3XL:y&&!f,isAbove4XL:f,isBelow4XL:!f,is4XL:f,isTouchDevice:!n.S$&&(null==(t=window)?void 0:t.ontouchstart)!==void 0};(0,r.useEffect)(()=>{c(!0)},[]);let v=(0,r.useMemo)(()=>!d||n.S$?o:j,[d,j]);return(0,s.jsx)(l.Provider,{value:v,children:a})},c=()=>{let e=(0,r.useContext)(l);if(!e)throw Error("useResponsive must be used within a ResponsiveProvider");return e}},14969:(e,t,a)=>{"use strict";a.d(t,{r:()=>l});var r=a(7620),i=a(38271),n=a(65736),s=a(11098),o=a(54568);let l=(0,r.forwardRef)((e,t)=>{let{onClick:a,label:r,children:l,tooltipText:d,tooltipPlacement:c,className:u=""}=e,p=(0,o.jsx)(i.A,{ref:t,onClick:a,"aria-label":r,type:"button",className:(0,n.cn)("pointer-events-auto flex aspect-square w-8 shrink-0 cursor-pointer items-center justify-center rounded-full border-none bg-lowest-emphasis/80 text-white shadow-none outline-none transition-all duration-100 hover:bg-gray-400/80 focus-visible:outline-2 focus-visible:outline-offset-2 focus-visible:outline-accent active:scale-95 md:w-9",u),children:l});return d?(0,o.jsx)(s.m,{placement:c,text:d,children:p}):p})},17077:(e,t,a)=>{Promise.resolve().then(a.bind(a,77184))},17208:(e,t,a)=>{"use strict";a.d(t,{Do:()=>y,gU:()=>f,rK:()=>j,sN:()=>v});var r=a(8897),i=a(9940),n=a(30377),s=a(49089),o=a(75643),l=a(5601),d=a(94599),c=a(1108),u=a(86789),p=a(11161),m=a(65736),g=a(54568);let h=e=>(0,g.jsx)("svg",{width:"18",height:"18",viewBox:"0 0 18 18",fill:"none",xmlns:"http://www.w3.org/2000/svg",...e,children:(0,g.jsx)("path",{fillRule:"evenodd",clipRule:"evenodd",d:"M4.29289 6.29289C4.68342 5.90237 5.31658 5.90237 5.70711 6.29289L9 9.58579L12.2929 6.29289C12.6834 5.90237 13.3166 5.90237 13.7071 6.29289C14.0976 6.68342 14.0976 7.31658 13.7071 7.70711L9.70711 11.7071C9.31658 12.0976 8.68342 12.0976 8.29289 11.7071L4.29289 7.70711C3.90237 7.31658 3.90237 6.68342 4.29289 6.29289Z",fill:"currentColor"})}),x=u.P.create(l.A),y=e=>{let{ariaLabelPrefix:t,paperProps:a,listProps:r,...i}=e;return(0,g.jsx)(x,{disableUnderline:!0,variant:"standard",IconComponent:h,MenuProps:{PaperProps:a||{sx:e=>({maxHeight:240,padding:0,background:e.palette.grey["600"],scrollbarWidth:"thin",scrollbarColor:`${e.palette.grey["300"]} ${e.palette.grey["500"]} `})},MenuListProps:{"aria-label":`${t} options`,className:(0,m.cn)("scrollbar-thin scrollbar-track-gray-600 scrollbar-thumb-gray-400"),sx:{gap:0},...r},anchorOrigin:{vertical:"bottom",horizontal:"left"},transformOrigin:{horizontal:"left",vertical:-8}},inputProps:{className:"focus-ring",tabIndex:0,"aria-label":`${t} select`},sx:e=>({height:"44px",boxShadow:"none",background:e.palette.grey["400"],transition:e.transitions.create("background",{duration:e.transitions.duration.shortest}),"&:hover":{background:e.palette.grey["300"]},color:e.palette.common.white,textTransform:"capitalize",fontWeight:e.typography.fontWeightMedium,borderRadius:1.5,[`& .${d.A.icon}`]:{color:e.palette.common.white,marginRight:"0.5rem"},[`& .${d.A.select}`]:{paddingTop:e.spacing(1),paddingRight:e.spacing(1.5),paddingLeft:e.spacing(1.5),paddingBottom:e.spacing(1),display:"flex",borderRadius:1.5}}),...i})},f=(0,c.Ay)(n.A)(e=>{let{theme:t}=e;return{display:"flex",alignItems:"center",color:t.palette.text.lowEmphasis.main,backgroundColor:t.palette.grey[400],height:"40px",lineHeight:"20px"}}),j=e=>{let{children:t,...a}=e;return(0,g.jsxs)(s.A,{role:"option",...a,sx:e=>({textTransform:"none",color:"#B2B2B2",display:"flex",gap:"0.75rem",fontWeight:500,height:"40px",paddingTop:e.spacing(1),paddingBottom:e.spacing(1),paddingRight:e.spacing(2),paddingLeft:e.spacing(2),[`&.${o.A.selected}.${o.A.focusVisible}`]:{backgroundColor:e.palette.grey[400]},[`.${r.A.root}`]:{opacity:0,transition:e.transitions.create("opacity",{duration:e.transitions.duration.shortest})},[`&.${o.A.selected} .${r.A.root}`]:{opacity:1}}),children:[t,(0,g.jsx)(i.A,{className:"flex flex-grow justify-end",children:(0,g.jsx)(p.N,{})})]})},v=e=>{let{children:t,text:a="Subscribe",...i}=e;return(0,g.jsxs)(s.A,{role:"option",...i,className:"flex gap-3 font-medium text-gray-300",sx:e=>({height:"40px",paddingTop:e.spacing(1),paddingBottom:e.spacing(1),paddingRight:e.spacing(2),paddingLeft:e.spacing(2),[`.${r.A.root}`]:{opacity:0,transition:e.transitions.create("opacity",{duration:e.transitions.duration.shortest})},[`&.${o.A.selected} .${r.A.root}`]:{opacity:1}}),children:[t,(0,g.jsx)("span",{className:"flex flex-grow justify-end text-yellow-500",children:a})]})}},18838:(e,t,a)=>{"use strict";a.d(t,{d:()=>i});var r=a(82377);let i=(0,a(1108).Ay)(r.A)(e=>{let{theme:t}=e;return{width:24,height:16,padding:1,display:"flex","&:active":{"& .MuiSwitch-thumb":{width:10},"& .MuiSwitch-switchBase.Mui-checked":{transform:"translateX(8px)"}},"& .MuiSwitch-switchBase":{padding:3,"&.Mui-checked":{transform:"translateX(8px)",color:"#fff","& + .MuiSwitch-track":{opacity:1,backgroundColor:"#FFDA2A"}}},"& .MuiSwitch-thumb":{width:10,height:10,borderRadius:100,transition:t.transitions.create(["width"],{duration:200})},"& .MuiSwitch-track":{borderRadius:100,opacity:1,backgroundColor:"#c0c0c0",boxSizing:"border-box"}}})},26538:(e,t,a)=>{"use strict";a.d(t,{VS:()=>l,fP:()=>d,wr:()=>o});var r,i=a(72466),n=a(76468);class s{constructor(e){let{baseUrl:t}=e;this.baseUrl=t}async query(e,t,a,r){let i=arguments.length>4&&void 0!==arguments[4]&&arguments[4];return(0,n.A)({method:"POST",apiURL:this.baseUrl,endpointVersion:(null==a?void 0:a.version)||"v1",endpoint:"/graphql",timeout:null==a?void 0:a.timeout,data:{query:e,variables:t},sendMethod:"raw",headers:r,shouldAttachAnonymousIdHeader:!0,shouldAttachUserIdHeader:!0,shouldAttachUserStatusHeader:!0,shouldAttachPreReleaseHeader:null==a?void 0:a.shouldAttachPreReleaseHeader}).then(e=>{var t;return i?e:null==e||null==(t=e.data)?void 0:t.data})}}let o=function(e){let{baseUrl:t}=e;return new s({baseUrl:t})}({baseUrl:i.uG}),l=((r={}).V1="v1",r.V2="v2",r),d={getArtistSongs:(e,t,a,r,s)=>(0,n.A)({method:"GET",apiURL:i.uG,endpointVersion:"v1",endpoint:"/songs/artist-songs",params:{artistId:e,take:t,skip:a,albumId:r},shouldAttachPreReleaseHeader:s}),getArtistSfx:function(e,t,a){let r=arguments.length>3&&void 0!==arguments[3]?arguments[3]:"";return(0,n.A)({method:"GET",apiURL:i.uG,endpointVersion:"v1",endpoint:"/sfx/artistSfxs",params:{artistId:e,take:t,page:a,albumId:r}})}}},27170:(e,t,a)=>{"use strict";a.d(t,{A:()=>n}),a(7620);var r=a(65736),i=a(54568);let n=e=>{let{children:t,childClassName:a,overwriteClassName:n,...s}=e;return(0,i.jsx)("div",{"data-testid":"LoadingPlaceholder",...s,children:(0,i.jsxs)("div",{className:(0,r.cn)("relative h-full w-full overflow-hidden rounded",a),children:[(0,i.jsx)("div",{className:(0,r.cn)("absolute top-0 left-0 h-[inherit] w-[inherit] overflow-hidden bg-gray-600",n)}),(0,i.jsx)("div",{className:"absolute top-0 left-0 h-full w-[200%] animate-shimmer bg-gradient-to-r from-gray-600 via-gray-300 to-gray-600 opacity-20"}),t]})})}},31504:(e,t,a)=>{"use strict";a.d(t,{Ux:()=>g,XO:()=>h});var r=a(7620),i=a(16923),n=a(14590),s=a(54940),o=a(21797),l=a(184),d=a(75230),c=a(74826),u=a(35724),p=a(28948);let m=["suggest-prompt"],g=()=>0!==(0,i.useIsMutating)({mutationKey:m}),h=()=>{let{dispatch:e}=(0,p.kt)(),t=(0,r.useRef)(void 0),a=(0,o.useSession)(),{trackImageGenEvent:i}=(0,c.W)(),{state:g}=(0,p.Cm)(),{modelGroupId:h}=g,x=(0,u._M)();return(0,n.useMutation)({mutationKey:m,mutationFn:e=>{var r,i;if(!(null!=(r=a.data)&&r.accessToken))throw l.e$.error("No access token when trying to suggest prompt.",{userId:null==(i=a.data)?void 0:i.user.id}),Error("No access token when trying to suggest prompt.");return t.current&&t.current.abort(),t.current=new AbortController,(0,d.n2)(e,{signal:t.current.signal,accessToken:a.data.accessToken})},onSuccess:t=>{e({type:"promptSuggested",payload:t}),i({name:"suggested prompt viewed",generate_type:"image to video",gen_ai_model:(0,u.Gl)(h,x.imageToVideo)})},onSettled:s.gq})}},32139:(e,t,a)=>{"use strict";a.d(t,{I:()=>i});var r=a(3548);let i=e=>(0,r.YW)(e).with("HD",()=>({short:"720p",long:"720p (HD)"})).with("FULL_HD",()=>({short:"1080p",long:"1080p (Full HD)"})).with("4K",()=>({short:"2160p",long:"2160p (4K)"})).with("2K",()=>({short:"1440p",long:"1440p (2K)"})).exhaustive()},38564:(e,t,a)=>{"use strict";a.d(t,{u:()=>n});var r=a(3548),i=a(99316);let n=(e,t)=>{let{isReady:a,getTreatment:n}=(0,i.O)(e,t),s=n();return(0,r.YW)({isReady:a,treatmentWithConfig:s}).with({isReady:!1},()=>({isReady:!1,isFeatureEnabled:!1,status:"pending"})).with({isReady:!0,treatmentWithConfig:{treatment:"on"}},()=>({isReady:!0,isFeatureEnabled:!0,status:"enabled"})).with({isReady:!0,treatmentWithConfig:r.P.union({treatment:r.P.string},void 0)},()=>({isReady:!0,isFeatureEnabled:!1,status:"disabled"})).exhaustive()}},42218:(e,t,a)=>{"use strict";a.d(t,{yj:()=>p,mu:()=>x,fc:()=>j,KB:()=>c,QB:()=>m,Iu:()=>b,n8:()=>d,RI:()=>g,zd:()=>u,Bk:()=>v,f4:()=>h,zM:()=>y,Ie:()=>o,h5:()=>f,Bx:()=>l});var r=a(72466),i=a(54568);let n=e=>{let{className:t}=e;return(0,i.jsx)("svg",{xmlns:"http://www.w3.org/2000/svg",viewBox:"0 0 16 16",fill:"none",className:t,children:(0,i.jsx)("path",{fillRule:"evenodd",clipRule:"evenodd",d:"M0.849469 11.4677C0.309542 10.4023 0 9.20011 0 7.91873C0 6.63732 0.309542 5.43513 0.849469 4.36969C2.15244 1.77813 4.82322 0 7.91873 0C10.0568 0 11.8421 0.784666 13.2171 2.06608L10.9494 4.33371C10.1216 3.55622 9.08492 3.15308 7.91873 3.15308C5.85986 3.15308 4.11053 4.54247 3.48424 6.41417C3.32587 6.8893 3.23226 7.39319 3.23226 7.91873C3.23226 8.44424 3.32587 8.94817 3.48424 9.42329L3.47487 9.43047H3.48424C4.11053 11.3022 5.85986 12.6916 7.91873 12.6916C8.98414 12.6916 9.884 12.4036 10.5895 11.9285C11.4318 11.367 11.9933 10.5319 12.1804 9.54566H7.91873V6.47894H15.3767C15.4703 6.99728 15.5207 7.53718 15.5207 8.0987C15.5207 10.5103 14.6568 12.5404 13.1595 13.9226C11.8493 15.132 10.0568 15.8374 7.91873 15.8374C4.82322 15.8374 2.15244 14.0593 0.849469 11.475V11.4677Z",fill:"currentColor"})})},s=`${r.u5}/artlist/visitor-home-page`,o={src:`${s}/chatGpt-icon.svg?auto=format`,svg:e=>{let{className:t}=e;return(0,i.jsxs)("svg",{xmlns:"http://www.w3.org/2000/svg",viewBox:"0 0 20 20",fill:"none",className:t,children:[(0,i.jsx)("g",{clipPath:"url(#clip0_171_103465)",children:(0,i.jsx)("path",{d:"M7.59767 7.31867V5.44599C7.59767 5.28803 7.6567 5.16996 7.79499 5.09124L11.5595 2.92338C12.0722 2.62766 12.6828 2.48991 13.3136 2.48991C15.6788 2.48991 17.177 4.32324 17.177 6.2741C17.177 6.41185 17.177 6.56981 17.1573 6.72724L13.2545 4.44078C13.0179 4.30302 12.7817 4.30302 12.545 4.44078L7.59767 7.31867ZM16.3883 14.6115V10.137C16.3883 9.86097 16.2697 9.66364 16.0335 9.52589L11.0861 6.648L12.7025 5.7215C12.8402 5.64278 12.9588 5.64278 13.0966 5.7215L16.8611 7.88936C17.945 8.52014 18.6742 9.86043 18.6742 11.1614C18.6742 12.6591 17.7876 14.0393 16.3877 14.6105L16.3883 14.6115ZM6.43449 10.6694L4.81817 9.72321C4.68041 9.6445 4.62085 9.52589 4.62085 9.36846V5.03221C4.62085 2.92338 6.23717 1.32673 8.42524 1.32673C9.25335 1.32673 10.0219 1.60277 10.6724 2.09527L6.78924 4.34238C6.55256 4.48013 6.43449 4.67745 6.43449 4.95349V10.6694ZM9.91339 12.6798L7.59714 11.3789V8.6196L9.91339 7.31867L12.2291 8.6196V11.3789L9.91339 12.6798ZM11.4015 18.6718C10.5734 18.6718 9.80489 18.3957 9.15442 17.9032L13.0375 15.6561C13.2742 15.5184 13.3923 15.321 13.3923 15.045V9.3291L15.0283 10.2753C15.166 10.354 15.2251 10.4726 15.2251 10.63V14.9663C15.2251 17.0751 13.5891 18.6718 11.4015 18.6718ZM6.7302 14.2765L2.9657 12.1086C1.88176 11.4778 1.15258 10.1375 1.15258 8.8366C1.15258 7.31867 2.05941 5.95871 3.45873 5.38749V9.88118C3.45873 10.1572 3.5768 10.3545 3.81348 10.4923L8.74117 13.35L7.12484 14.2765C6.98709 14.3552 6.86796 14.3552 6.7302 14.2765ZM6.5132 17.5091C4.28577 17.5091 2.64977 15.8338 2.64977 13.7643C2.64977 13.6069 2.66945 13.4489 2.68913 13.2915L6.57224 15.5386C6.80892 15.6763 7.0456 15.6763 7.28174 15.5386L12.2291 12.6809V14.5536C12.2291 14.711 12.1701 14.8296 12.0318 14.9083L8.26728 17.0767C7.75457 17.3724 7.14399 17.5102 6.5132 17.5102V17.5091ZM11.4015 19.8546C13.7864 19.8546 15.7771 18.1596 16.2308 15.9125C18.438 15.3407 19.8576 13.2713 19.8576 11.1624C19.8576 9.78278 19.2662 8.44249 18.2019 7.47663C18.3003 7.06285 18.3599 6.64853 18.3599 6.23474C18.3599 3.41641 16.0734 1.30706 13.4322 1.30706C12.9003 1.30706 12.3876 1.38577 11.8749 1.56341C10.9877 0.695948 9.76553 0.144409 8.42577 0.144409C6.04091 0.144409 4.05016 1.83945 3.59648 4.08656C1.38873 4.65831 -0.0302734 6.72778 -0.0302734 8.8366C-0.0302734 10.2162 0.561155 11.5565 1.62541 12.5224C1.52701 12.9362 1.46745 13.3505 1.46745 13.7643C1.46745 16.5826 3.75391 18.692 6.39513 18.692C6.92699 18.692 7.43971 18.6133 7.95242 18.4356C8.83956 19.3031 10.0612 19.8546 11.4015 19.8546Z",fill:"currentColor"})}),(0,i.jsx)("defs",{children:(0,i.jsx)("clipPath",{id:"clip0_171_103465",children:(0,i.jsx)("rect",{width:"20",height:"20",fill:"currentColor"})})})]})},alt:"Sora",aspectRatio:26.657/29.328},l={src:`${s}/google-icon.svg?auto=format`,svg:n,alt:"Veo",aspectRatio:21.329/29.328},d={src:`${s}/google-icon.svg?auto=format`,svg:n,alt:"Nano Banana",aspectRatio:21.328/29.328},c={src:`${s}/kling-icon.svg?auto=format`,svg:e=>{let{className:t}=e;return(0,i.jsx)("svg",{xmlns:"http://www.w3.org/2000/svg",viewBox:"0 0 20 20",fill:"none",className:t,children:(0,i.jsx)("path",{d:"M9.39506 0.0269398C9.8995 -0.000516998 10.19 -0.00498672 10.6302 0.00459125C12.8646 0.105479 16.0591 1.41702 17.4155 3.23492C18.7739 5.05473 17.3416 8.25569 16.207 9.90885L20 13.6628C17.4162 19.0622 10.6516 21.7134 5.13843 18.7991C4.28775 18.3496 2.81657 17.3318 2.3627 16.4979C1.32205 14.5842 2.72126 11.7797 3.75024 10.1081L0 6.43843V6.24751C0.560851 4.67417 1.83816 3.26876 3.18161 2.25031C4.91733 0.934293 7.02003 0.207644 9.39506 0.0269398ZM14.5763 2.23753C14.3053 2.19411 14.0971 1.99362 13.8631 1.88762C9.86903 0.0748297 5.09693 1.36275 2.33418 4.62564C2.1442 4.84977 1.25008 6.0004 1.30519 6.20154L4.50302 9.36546C6.68547 6.55528 9.84439 3.57526 13.3774 2.55425C13.7418 2.44889 14.1043 2.42399 14.4492 2.33331C14.5095 2.31735 14.5951 2.31735 14.5763 2.23753ZM15.484 9.42995C16.9734 7.52393 18.6922 2.65322 14.4875 3.00888C13.1116 3.12509 11.6916 3.91304 10.5265 4.5918C10.437 4.72142 10.6367 4.62436 10.6802 4.61543C14.0537 3.91432 16.205 6.15875 15.484 9.42995ZM11.6482 5.1205C8.63256 5.26928 5.53459 8.17524 5.071 11.0703C4.58406 14.1104 6.88063 15.5062 9.70369 14.6678C12.4107 13.8639 15.176 10.7638 14.9569 7.87832C14.8207 6.08468 13.4364 5.03239 11.6482 5.1205ZM9.39376 15.4143C7.73196 15.7667 6.00337 15.4934 4.98671 14.0465C4.2871 13.0511 4.31045 12.0013 4.46152 10.8539C4.46735 10.8073 4.51663 10.578 4.40511 10.6706C3.43578 12.0696 1.75452 15.7067 3.82092 16.7833C5.40491 17.6083 8.05421 16.3574 9.39376 15.4143ZM5.37703 17.706C6.08247 18.2008 7.04921 18.5629 7.90313 18.7557C12.1377 19.7109 16.6719 17.5578 18.7045 13.8531L15.4529 10.7032C14.101 12.5089 12.4425 14.1647 10.5797 15.4653C9.0767 16.5151 7.23595 17.531 5.37703 17.706Z",fill:"currentColor"})})},alt:"Kling",aspectRatio:26.656/29.328},u={src:`${s}/bytedance-icon.svg?auto=format`,svg:e=>{let{className:t}=e;return(0,i.jsxs)("svg",{xmlns:"http://www.w3.org/2000/svg",viewBox:"0 0 18 16",fill:"currentColor",className:t,children:[(0,i.jsx)("path",{d:"M3.06965 14.0137L6.10352e-05 14.803V0.817383L3.06965 1.6067V14.0137Z",fill:"currentColor"}),(0,i.jsx)("path",{d:"M17.8982 14.8334L14.8228 15.6228V0L17.8982 0.783475V14.8334Z",fill:"currentColor"}),(0,i.jsx)("path",{d:"M7.94179 14.4414L4.87219 15.2308V6.99255L7.94179 7.78184V14.4414Z",fill:"currentColor"}),(0,i.jsx)("path",{d:"M9.94312 5.77012L13.0185 4.98077V13.219L9.94312 12.4296V5.77012Z",fill:"currentColor"})]})},alt:"Seedance",aspectRatio:23.992/29.328},p={src:`${s}/fluxKontext-icon.svg?auto=format`,svg:e=>{let{className:t}=e;return(0,i.jsxs)("svg",{xmlns:"http://www.w3.org/2000/svg",viewBox:"0 0 22 16",fill:"none",className:t,children:[(0,i.jsx)("path",{d:"M17.9596 16H16.0338L11.0392 8.32983H12.965L17.9596 16Z",fill:"currentColor"}),(0,i.jsx)("path",{d:"M0 15.9589L10.5558 0L21.0909 16H19.1136C19.083 15.9271 19.0342 15.8491 18.9905 15.7831C16.1713 11.5237 13.38 7.24563 10.5558 2.9896L3.0688 14.3299H13.7173L14.7634 15.9321L14.7882 16H0V15.9589Z",fill:"currentColor"}),(0,i.jsx)("path",{d:"M17.3732 8.08232C17.3678 8.08109 17.333 8.05198 17.3524 8.04146L19.2369 5.25763L21.0821 8.04043C21.1003 8.05302 21.0628 8.08253 21.0601 8.08253H17.3732V8.08232Z",fill:"currentColor"}),(0,i.jsx)("path",{d:"M7.08521 12.5154L8.92855 9.77289L10.7309 12.5154H7.08521Z",fill:"currentColor"})]})},alt:"Flux Kontext",aspectRatio:29.33/29},m={src:`${s}/minimax-icon.svg?auto=format`,svg:e=>{let{className:t}=e;return(0,i.jsx)("svg",{xmlns:"http://www.w3.org/2000/svg",viewBox:"0 0 25 20",fill:"none",className:t,children:(0,i.jsx)("path",{d:"M16.9562 0C18.1604 0 19.1365 0.926999 19.1365 2.07V14.571C19.1448 14.7625 19.2303 14.9434 19.3748 15.0757C19.5194 15.2079 19.7118 15.2812 19.9115 15.28C20.111 15.2809 20.3031 15.2076 20.4474 15.0754C20.5917 14.9431 20.6771 14.7623 20.6854 14.571V7.09899C20.6869 6.82846 20.7439 6.56087 20.8531 6.3115C20.9624 6.06212 21.1217 5.83583 21.322 5.64556C21.5223 5.4553 21.7597 5.30477 22.0207 5.20258C22.2816 5.10039 22.5609 5.04854 22.8427 5.04999C23.1246 5.04854 23.404 5.10043 23.665 5.20268C23.926 5.30493 24.1634 5.45554 24.3638 5.64592C24.5641 5.83629 24.7234 6.06269 24.8326 6.31219C24.9417 6.56168 24.9986 6.82938 25 7.09999V13.661C24.9989 13.8329 24.9268 13.9974 24.7994 14.1184C24.6721 14.2393 24.5 14.3068 24.3208 14.306C24.2321 14.3065 24.144 14.2902 24.0618 14.2581C23.9796 14.226 23.9047 14.1786 23.8416 14.1187C23.7784 14.0588 23.7282 13.9876 23.6937 13.909C23.6592 13.8305 23.6412 13.7462 23.6406 13.661V7.09999C23.6401 6.99992 23.619 6.90094 23.5786 6.80869C23.5382 6.71644 23.4793 6.63273 23.4052 6.56234C23.3311 6.49196 23.2433 6.43627 23.1468 6.39846C23.0503 6.36065 22.9469 6.34146 22.8427 6.34199C22.7385 6.34146 22.6351 6.36065 22.5386 6.39846C22.4421 6.43627 22.3543 6.49196 22.2802 6.56234C22.2061 6.63273 22.1472 6.71644 22.1068 6.80869C22.0664 6.90094 22.0453 6.99992 22.0448 7.09999V14.572C22.0433 14.8395 21.9869 15.1041 21.8789 15.3507C21.7709 15.5973 21.6133 15.821 21.4152 16.0091C21.2171 16.1973 20.9824 16.3461 20.7243 16.4471C20.4663 16.5482 20.1901 16.5994 19.9115 16.598C19.6328 16.5994 19.3566 16.5482 19.0986 16.4471C18.8406 16.3461 18.6058 16.1973 18.4077 16.0091C18.2096 15.821 18.052 15.5973 17.944 15.3507C17.836 15.1041 17.7796 14.8395 17.7781 14.572V2.072C17.7695 1.86888 17.6791 1.67689 17.526 1.53645C17.3729 1.396 17.169 1.31805 16.9573 1.319C16.7455 1.31778 16.5415 1.39548 16.3882 1.53574C16.2349 1.676 16.1443 1.86788 16.1354 2.071L16.1344 17.975C16.1311 18.515 15.9045 19.0318 15.5044 19.4115C15.1044 19.7912 14.5636 20.0029 14.001 20C13.7224 20.0014 13.4462 19.9502 13.1882 19.8491C12.9301 19.7481 12.6954 19.5993 12.4973 19.4111C12.2992 19.223 12.1416 18.9993 12.0336 18.7527C11.9256 18.5061 11.8692 18.2415 11.8677 17.974V16.04C11.8677 15.684 12.1719 15.395 12.5469 15.395C12.9219 15.395 13.226 15.684 13.226 16.04V17.974C13.226 18.237 13.374 18.48 13.6135 18.612C13.8531 18.743 14.149 18.743 14.3885 18.612C14.5061 18.548 14.6039 18.4552 14.672 18.3432C14.74 18.2311 14.7759 18.1037 14.776 17.974V2.07C14.776 0.926999 15.7521 0 16.9562 0ZM11.0458 0C12.25 0 13.226 0.926999 13.226 2.07V13.593C13.2256 13.6782 13.2077 13.7624 13.1734 13.841C13.139 13.9195 13.0888 13.9908 13.0258 14.0507C12.9627 14.1106 12.8879 14.1579 12.8057 14.1901C12.7236 14.2222 12.6356 14.2385 12.5469 14.238C12.4581 14.2385 12.3702 14.2222 12.288 14.1901C12.2058 14.1579 12.1311 14.1106 12.068 14.0507C12.0049 13.9908 11.9547 13.9195 11.9204 13.841C11.886 13.7624 11.8681 13.6782 11.8677 13.593V2.07C11.8663 1.86198 11.779 1.66298 11.6249 1.51673C11.4708 1.37048 11.2625 1.28893 11.0458 1.29C10.8291 1.28893 10.6209 1.37048 10.4668 1.51673C10.3127 1.66298 10.2253 1.86198 10.224 2.07V16.083C10.2207 16.629 9.99168 17.1514 9.58737 17.5354C9.18305 17.9194 8.63646 18.1336 8.06771 18.131C7.49877 18.1339 6.95192 17.9198 6.54738 17.5358C6.14283 17.1517 5.91372 16.6291 5.91042 16.083V7.09999C5.90987 6.99992 5.8888 6.90094 5.8484 6.80869C5.80801 6.71644 5.74908 6.63273 5.67499 6.56234C5.6009 6.49196 5.51309 6.43627 5.41657 6.39846C5.32006 6.36065 5.21674 6.34146 5.1125 6.34199C5.00826 6.34146 4.90494 6.36065 4.80843 6.39846C4.71191 6.43627 4.6241 6.49196 4.55001 6.56234C4.47592 6.63273 4.41699 6.71644 4.3766 6.80869C4.3362 6.90094 4.31513 6.99992 4.31458 7.09999V10.9C4.31308 11.1705 4.25609 11.4381 4.14686 11.6875C4.03764 11.9369 3.87831 12.1631 3.67799 12.3534C3.47767 12.5437 3.24027 12.6942 2.97934 12.7964C2.71842 12.8986 2.43909 12.9504 2.15729 12.949C1.8755 12.9504 1.59616 12.8986 1.33524 12.7964C1.07432 12.6942 0.836917 12.5437 0.636593 12.3534C0.436269 12.1631 0.276946 11.9369 0.167719 11.6875C0.0584916 11.4381 0.00150072 11.1705 0 10.9L0 9.52199C0 9.16499 0.304167 8.87599 0.679167 8.87599C1.05417 8.87599 1.35937 9.16599 1.35937 9.52199V10.9C1.35937 11.318 1.71667 11.657 2.15729 11.657C2.59792 11.657 2.95521 11.318 2.95521 10.9V7.09899C2.95851 6.55299 3.18748 6.03058 3.5918 5.64657C3.99612 5.26255 4.54271 5.04833 5.11146 5.05099C5.68039 5.04807 6.22725 5.26216 6.63179 5.64621C7.03633 6.03026 7.26544 6.55281 7.26875 7.09899V16.083C7.26875 16.502 7.62604 16.841 8.06771 16.841C8.50833 16.841 8.86562 16.502 8.86562 16.083V2.07C8.86562 0.926999 9.84167 0 11.0458 0Z",fill:"currentColor"})})},alt:"Minimax",aspectRatio:33.32/29.328},g={src:d.src,alt:"Nano Banana"},h={src:u.src,alt:"Seedream 4.0"},x={src:p.src,alt:"Flux Kontext"},y={src:o.src,alt:"Sora 2"},f={src:l.src,alt:"VEO 3.1"},j={src:c.src,alt:"Kling 2.5"},v={src:u.src,alt:"Seedance V1 Pro"},b={src:m.src,alt:"Minimax"}},48060:(e,t,a)=>{"use strict";a.d(t,{a:()=>o}),a(7620);var r=a(10933),i=a.n(r),n=a(65736),s=a(54568);let o=e=>{let{href:t,children:a,isActive:r,onClick:o,disabled:l}=e;return l?(0,s.jsx)("div",{className:"shrink-0 grow flex flex-col gap-1.5 lg:flex-none",children:(0,s.jsx)("p",{className:"text-center text-sm font-normal transition-colors text-gray-200 hover:text-gray-100",children:a})}):(0,s.jsxs)("div",{className:"shrink-0 grow flex flex-col gap-1.5 lg:flex-none",children:[(0,s.jsx)(i(),{scroll:!1,role:"tab","aria-selected":r,href:t,onClick:o,className:(0,n.cn)("text-center text-sm font-normal transition-colors",r?"text-white sm:text-gray-50":"text-gray-100 sm:text-gray-200"),children:a}),r?(0,s.jsx)("div",{className:"h-[1.5px] w-full bg-white lg:bg-gray-50"}):null]})}},50527:(e,t,a)=>{"use strict";a.d(t,{f:()=>r});let r=e=>e.replace("v1","V1")},51786:(e,t,a)=>{"use strict";a.d(t,{l:()=>r});let r=()=>{}},52367:(e,t,a)=>{"use strict";a.d(t,{C:()=>i});var r=a(7620);let i=()=>{let e=(0,r.useRef)(void 0),t=(0,r.useRef)(!1);return{applyUnscrollableStyleToBody:()=>{t.current||(e.current={overflow:document.body.style.overflow,position:document.body.style.position,top:document.body.style.top,scrollYOffset:window.scrollY},document.body.style.overflow="hidden",document.body.style.position="fixed",document.body.style.top=`${window.scrollY}px`,t.current=!0)},restoreScrollableStyleToBody:()=>{if(e.current&&t.current){var a;a=e.current,document.body.style.overflow=a.overflow??"",document.body.style.position=a.position??"",document.body.style.top=a.top??"",a.scrollYOffset&&window.scrollTo(0,a.scrollYOffset),t.current=!1}}}}},53820:(e,t,a)=>{"use strict";a.d(t,{A:()=>s});var r=a(7620),i=a(62596),n=a(54568);let s=(0,r.forwardRef)((e,t)=>{let{to:a,children:r,...s}=e;return(0,n.jsx)(i.A,{to:a,"aria-label":s.ariaLabel,"data-testid":"Link",...s,ref:t,children:r})})},53926:(e,t,a)=>{"use strict";a.d(t,{i:()=>h,x:()=>x});var r=a(7620),i=a(32638),n=a(21797),s=a(26430),o=a(32097),l=a.n(o),d=a(24990);let c="accountManager",u=e=>{if(!d.S$&&e)try{let t={data:e,timestamp:Date.now()};localStorage.setItem(c,JSON.stringify(t))}catch{}},p=async()=>{let e=await fetch("/api/account-manager");if(!e.ok)throw Error(`Failed to fetch account manager: ${e.status}`);let t=await e.json();return u(t),t},m=()=>{if(d.S$)return;let e=(()=>{if(d.S$)return{};try{let e=localStorage.getItem(c);return e?JSON.parse(e):{}}catch{return{}}})();return null!=e&&e.data&&l()(e.timestamp)&&Date.now()-e.timestamp<864e5?e.data:void localStorage.removeItem(c)},g=["accountManager"],h=()=>{let e="authenticated"===(0,n.useSession)().status,{isEnterpriseForAccountManager:t}=(0,s.f)(),a=e&&t,o=(0,i.useQuery)({initialData:m,queryKey:g,queryFn:p,enabled:a,staleTime:864e5,retry:!1,refetchOnMount:!1,refetchOnWindowFocus:!1,refetchOnReconnect:!1,refetchInterval:!!a&&864e5});return(0,r.useEffect)(()=>{o.data&&u(o.data)},[o.data]),{query:o,isAccountManagerEnabled:a}},x=()=>{let{query:e,isAccountManagerEnabled:t}=h();return{accountManager:e.data?e.data:{},isAccountManagerEnabled:t}}},55760:(e,t,a)=>{"use strict";a.d(t,{F:()=>s,M:()=>o});var r=a(7620),i=a(32638),n=a(61608);let s=()=>{let e=(0,i.useQuery)({initialData:n.jH,queryKey:n.TJ,queryFn:()=>(0,n.c$)(),staleTime:1/0,refetchOnMount:!1,refetchOnReconnect:!1,refetchOnWindowFocus:!1});return(0,r.useEffect)(()=>{e.data&&(0,n.U2)(e.data)},[e.data]),e},o=()=>{let e=s();return{geoData:e.data?(0,n.Bj)(e.data):{}}}},59786:(e,t,a)=>{"use strict";a.d(t,{VP:()=>s,ZK:()=>c,gH:()=>m});var r=a(41935),i=a(80752);let n=r.z.string(),s=e=>{let[t,a]=e.toLowerCase().split(/\D+/).map(Number);if(Number.isNaN(t)||Number.isNaN(a))throw Error(`Invalid dimensions format. Expected '{number}{separator}{number}', got '${e}'`);return{width:t,height:a}},o=r.z.object({id:r.z.string(),styleId:r.z.string(),prompt:r.z.string(),imageUrl:r.z.string().url(),displayOrder:r.z.number().int(),dimensions:r.z.string().transform(s),aspectRatio:i.h7}).transform(e=>({...e,variant:"imageShowcaseExample"})),l=r.z.object({videoUrl:r.z.string().url(),videoResolution:i.Cg}).and(o).transform(e=>({...e,variant:"videoShowcaseExample"})),d=r.z.object({id:r.z.string(),coverImageUrl:r.z.string(),name:r.z.string(),upscaleCost:r.z.number().nullable(),videoGenerationFullHdCost:r.z.number().nullable(),videoGenerationHdCost:r.z.number().nullable(),imageGenerationCost:r.z.number(),description:r.z.string(),tags:r.z.array(n).optional().default([]),showcases:r.z.array(r.z.union([l,o])).nullish().default([])});r.z.object({page:r.z.number(),assetType:r.z.enum(["generatedImage","generatedVideo"]).optional(),feature:r.z.enum(["imageToImage","upscaleVideo","generateVideo","generateVideoFromCustomImage"]).optional()});let c=r.z.object({generativeMediaStyleList:r.z.array(d)});r.z.object({id:r.z.string()});let u=r.z.object({generativeMediaStyles:r.z.array(d).length(1)}),p=r.z.object({generativeMediaStyles:r.z.array(d).length(0)}),m=r.z.union([u,p])},62596:(e,t,a)=>{"use strict";a.d(t,{A:()=>c});var r=a(7620),i=a(10933),n=a.n(i),s=a(902),o=a(65736),l=a(54568);let d="noopener noreferrer",c=r.forwardRef((e,t)=>{let{to:a,additionalOnClickFn:r,className:i,activeClassName:c,shouldOpenInNewTab:u,isExternalLink:p,shallow:m,noFollow:g,shouldAddHttp:h,children:x,ariaLabel:y,activeRouteMatcher:f,...j}=e,v=(0,s.usePathname)(),b=g?`${d} nofollow`:d;if(p){let e=h?/^https?:\/\//i.test(a)?a:`http://${a}`:a;return(0,l.jsx)("a",{...j,href:e,onClick:r,className:i,rel:b,...u&&{target:"_blank"},"aria-label":y,children:x})}let w=(f?f(v):v===a)?(0,o.cn)(i,c):i;return(0,l.jsx)(n(),{href:a,shallow:m,...j,className:w,onClick:e=>{"function"==typeof r&&r(e)},role:"link",ref:t,...u&&{target:"_blank"},prefetch:!1,children:x})})},68275:(e,t,a)=>{"use strict";a.d(t,{$:()=>c,O:()=>d});var r,i=a(7620),n=a(74706),s=a(65736),o=a(11098),l=a(54568);let d=((r={}).white="white",r.warning="warning",r.gray="gray",r.lightGray="light-gray",r.gradient="gradient",r.default="default",r),c=(0,i.forwardRef)((e,t)=>{let{text:a="",children:r="",type:i="button",variant:c="contained",theme:u=d.default,size:p="md",isFullWidth:m=!1,customSpacingX:g="",customSpacingY:h="",textCase:x="original",textColor:y="",textHoverColor:f="",textAndBorderHoverColor:j="",onClickFn:v=()=>{},onHoverFn:b,onMouseUpFn:w,isHighlighted:_=!1,hasUnderline:C=!1,isDisabled:T=!1,hasPointerCursorWhenDisabled:I=!1,icon:E=null,startIcon:A=null,endIcon:k=null,iconSize:N="1x",iconClassNames:S,isLoaderShown:M=!1,shouldLoaderHideContent:O=!1,hasTooltip:L=!1,tooltipText:P="",tooltipId:R="",tooltipPlacement:G,label:B,classNames:U,autoFocus:F,nativeProps:$={}}=e;if(!a&&!r&&!E)return null;let D=c;E&&"circled"!==D&&(D="text");let V=(0,s.cn)("flex justify-center items-center","text"!==D&&"font-bold","text"!==D&&"rounded-full",m&&"w-full","upper"===x&&"uppercase","lower"===x&&"lowercase","capitalize"===x&&"capitalize",M&&"cursor-wait",I?"disabled:cursor-pointer":"disabled:cursor-not-allowed","disabled:text-invert disabled:bg-gray-300 disabled:border-gray-300","transition-colors"),X="";switch(D){case"circled":X=(0,s.cn)("disabled:text-gray-300 bg-transparent disabled:bg-transparent rounded-full border",E&&`${_?"border-accent":"border-gray-200"}`,E&&`${y||(_?"text-accent":"text-white")}`,u===d.gray&&"!text-white font-bold !bg-gray-400 !border-0 rounded-full hover:bg-gray-300",E&&`${f||(_?"text-primary-dark hover:border-primary-dark":"hover:text-accent hover:border-accent")}`);break;case"text":X=(0,s.cn)("disabled:text-gray-300 bg-transparent disabled:bg-transparent",y||(_?"":"text-white"),E&&`${y||(_?"text-accent":"text-gray-100")} ${f||"hover:text-white"}`,!M&&(f||"hover:text-accent"),C&&"underline");break;case"outlined":X=(0,s.cn)("border disabled:text-gray-300 disabled:bg-transparent",y||"text-white",u===d.default&&!_&&"border-white",u===d.white&&"bg-white rounded-full border border-white hover:text-invert hover:bg-gray-50 hover:border-gray-50",u===d.warning&&"text-white bg-transparent rounded-full border border-error hover:text-error hover:bg-gray-50 hover:border-gray-50",_&&"border-accent","bg-transparent",!M&&(j||"hover:text-invert hover:bg-white"));break;default:X=(0,s.cn)(u===d.default&&"text-primary-contrast bg-primary",!M&&u===d.default&&"transition-all duration-300 hover:bg-primary-dark",u===d.white&&"text-black bg-white rounded-full border border-white hover:text-invert hover:bg-gray-50 hover:border-gray-50",u===d.gradient&&"text-black bg-gradient-to-r from-orange-100 to-yellow-100 rounded-full hover:text-invert hover:bg-gray-50 hover:border-gray-50",u===d.gray&&"text-white font-bold bg-gray-400 rounded-full hover:bg-gray-300",u===d.lightGray&&"text-black bg-gray-50 hover:bg-gray-100")}let W="",z="",K="";switch(p){case"xxs":W=`${h||"py-1"} ${g||"px-5.5"}`,z="text-sm leading-3",E&&(W="w-4 h-4","circled"===D&&(W="w-7 h-7"));break;case"xs":W=`${h||"py-1"} ${g||"px-7"}`,z="text-sm leading-3",E&&(W="w-6 h-6","circled"===D&&(W="w-7 h-7"));break;case"sm":W=`${h||"py-2"} ${g||"px-8"}`,z="text-sm leading-4",E&&(W="w-8 h-8","circled"===D&&(W="w-9 h-9",K="w-4 h-4"));break;case"md":default:W=`${h||"py-2.5"} ${g||"px-12"}`,z="text-sm leading-4",E&&(W="w-10 h-10","circled"===D&&(K="w-6 h-6"));break;case"lg":W=`${h||"py-3"} ${g||"px-13"}`,z="text-base leading-5",E&&(W="w-12 h-12","circled"===D&&(W="w-11 h-11",K="w-7.5 h-7.5"));break;case"xl":W=`${h||"py-4"} ${g||"px-14.5"}`,z="text-lg leading-5",E&&(W="w-14 h-14","circled"===D&&(W="w-13 h-13",K="w-9 h-9"));break;case"2xl":W=`${h||"py-5"} ${g||"px-16"}`,z="text-xl leading-5",E&&(W="w-16 h-16","circled"===D&&(W="w-16 h-16",K="w-11 h-11"));break;case"3xl":W=`${h||"py-7"} ${g||"px-18"}`,z="text-3.5xl leading-6",E&&(W="w-20 h-20","circled"===D&&(W="w-20 h-20",K="w-14 h-14"))}"text"===D&&(W="p-0"),E&&(W=(0,s.cn)(W,"grid place-items-center","circled"!==D&&"p-0"));let H=function(){let{icon:e=null}=arguments.length>0&&void 0!==arguments[0]?arguments[0]:{};if(M)return(0,l.jsx)("span",{"data-testid":"renderIconOrLoader",className:(0,s.cn)("flex min-h-5 min-w-5 items-center justify-center",!e&&"absolute",!e&&!O&&"-left-6"),children:(0,l.jsx)("svg",{className:"animate-rotateSpinnerWrapper",width:"15px",height:"15px",viewBox:"0 0 66 66",xmlns:"http://www.w3.org/2000/svg",children:(0,l.jsx)("circle",{fill:"none",strokeWidth:"6",strokeLinecap:"round",strokeDasharray:"187",strokeDashoffset:"0",cx:"33",cy:"33",r:"30",className:(0,s.cn)("origin-center animate-rotateSpinnerInner","contained"===D?"stroke-gray-900":"stroke-white")})})});if(e){let t=(0,s.cn)("flex items-center justify-center");return t="circled"===D?(0,s.cn)(t,K,S):(0,s.cn)(t,"min-w-5 min-h-5",S),(0,l.jsx)("span",{"data-testid":"renderIconOrLoader",className:t,children:(0,l.jsx)(n.g,{icon:e,size:N})})}return null},Y=()=>(0,l.jsxs)("button",{"data-testid":"renderButton",...$,"aria-label":B,type:i,className:(0,s.cn)(V,X,W,z,U),disabled:T,onClick:e=>{M||v(e)},onMouseEnter:e=>{null==b||b(e)},onMouseUp:e=>{"text"===D||M||null==w||w(e)},ref:t,autoFocus:F,children:[O&&M&&(0,l.jsx)("span",{className:"absolute min-h-5 min-w-5",children:H()}),(0,l.jsx)("span",{className:(0,s.cn)("relative flex min-h-5 items-center justify-center gap-1",O&&M&&"opacity-0"),children:E?H({icon:E}):(0,l.jsxs)(l.Fragment,{children:[H({icon:A}),(0,l.jsx)("span",{className:"whitespace-nowrap",children:a||r}),k&&(0,l.jsx)("span",{className:(0,s.cn)("flex min-h-5 min-w-5 items-center justify-center",S),children:(0,l.jsx)(n.g,{icon:k,size:N})})]})})]});return L&&null!=P&&P.trim().length?(0,l.jsx)(o.m,{text:P,id:R,placement:G,children:Y()}):Y()})},72988:(e,t,a)=>{"use strict";a.d(t,{$W:()=>o,C5:()=>h,DC:()=>m,Eb:()=>l,Oz:()=>x,Z:()=>u,bl:()=>c,r5:()=>s,so:()=>d,uv:()=>p,ux:()=>g});var r=a(16596);let i="uql pop up",n="Calendly pop up",s=e=>{r.default.track({name:"LeadInfoUpdated",eventData:{is_lead_type_status_new:e.hasJourneyChanged,existing_lead_journey:e.previousLeadJourney??"",updated_lead_journey:e.updatedLeadJourney??"",trigger:e.trigger,click_source:e.clickSource}})},o=e=>{r.default.track({name:"pop-up open",eventData:{pop_up_name:e.dialogName,click_source:e.clickSource,trigger_button:e.triggerButton}})},l=e=>{r.default.track({name:"pop-up open",eventData:{pop_up_name:n,click_source:e.clickSource??null,modal_title:e.modalTitle}})},d=e=>{r.default.track({name:"pop-up close",eventData:{click_source:i,pop_up_name:e.dialogName,section_title:e.sectionTitle,section_order:e.sectionOrder,trigger_button:e.triggerButton}})},c=e=>{r.default.track({name:"pop-up close",eventData:{pop_up_name:n,click_source:e.clickSource??null,button_name:e.buttonName??null}})},u=e=>{r.default.track({name:"button clicked",eventData:{click_source:i,button_text:e.buttonText,button_name:e.buttonName,component:e.component,section_title:e.sectionTitle,section_order:e.sectionOrder}})},p=e=>{r.default.track({name:"button clicked",eventData:{button_name:"date and time",click_source:e.clickSource??null,modal_title:e.modalTitle}})},m=(e,t)=>e?void r.default.track({name:"checkbox_on",eventData:{click_source:i,checkbox_text:t.checkboxText,pop_up_name:t.popUpName,section_title:t.sectionTitle,section_order:t.sectionOrder}}):void r.default.track({name:"checkbox_off",eventData:{click_source:i,checkbox_text:t.checkboxText,pop_up_name:t.popUpName,section_title:t.sectionTitle,section_order:t.sectionOrder}}),g=e=>{r.default.track({name:"form submitted successfully",eventData:{form_source:"uql form",click_source:i,pop_up_name:e.popUpName,get_in_touch_method:e.getInTouchMethod??null,is_individual:e.isIndividual??!1}})},h=e=>{r.default.track({name:"form submitted successfully",eventData:{form_source:"Calendly form",button_name:"Schedule Event",pop_up_name:n,click_source:e.clickSource??null}})},x=e=>{r.default.track({name:"error_message_pop_up",eventData:{click_source:i,section_title:e.sectionTitle,section_order:e.sectionOrder??null,trigger:e.trigger,get_in_touch_method:e.getInTouchMethod??null,is_individual:e.isIndividual??!1}})}},75087:(e,t,a)=>{"use strict";a.d(t,{CU:()=>s,M5:()=>n,Rs:()=>r,ol:()=>i});let r="control",i={anonymous:"anonymous",user:"user"},n={perAction:"perAction",perAnonymous:"perAnonymous",perSession:"perSession"},s="exp"},77184:(e,t,a)=>{"use strict";a.d(t,{PromptSection:()=>sO});var r=a(7620),i=a(902),n=a(65497),s=a(3548),o=a(86789),l=a(4085),d=a(4168),c=a(64779),u=a(439),p=a(80752),m=a(74826),g=a(70027),h=a(54568);let x=e=>{let{children:t,onClear:a,popoverContents:i}=e,[n,s]=(0,r.useState)(null),o=()=>{s(null)},l=!!n;return(0,h.jsxs)(h.Fragment,{children:[(0,h.jsxs)("div",{className:"relative group h-10 w-10","aria-owns":l?"image-preview-popover":void 0,"aria-haspopup":"true",onMouseEnter:e=>{s(e.currentTarget)},onMouseLeave:o,children:[t,(0,h.jsx)("button",{type:"button",onClick:a,className:"absolute top-0 left-0 h-full w-full flex items-center justify-center bg-black/50 opacity-0 group-hover:opacity-100 transition-opacity duration-150","aria-label":"Clear image",children:(0,h.jsx)(y,{})})]}),(0,h.jsx)(g.Ay,{id:"image-preview-popover",sx:{pointerEvents:"none"},open:l,anchorEl:n,anchorOrigin:{vertical:-10,horizontal:"center"},transformOrigin:{vertical:"bottom",horizontal:"center"},onClose:o,disableRestoreFocus:!0,slotProps:{paper:{sx:{padding:0,margin:0}}},marginThreshold:4,children:i})]})},y=()=>(0,h.jsx)("svg",{width:"12",height:"12",viewBox:"0 0 12 12",fill:"none",xmlns:"http://www.w3.org/2000/svg",children:(0,h.jsx)("path",{d:"M0.267578 0.267578C0.624456 -0.089145 1.20367 -0.089145 1.56055 0.267578L6.00293 4.70801L10.4395 0.273438C10.7964 -0.0830165 11.3747 -0.0822194 11.7314 0.274414C12.0883 0.631114 12.0892 1.20968 11.7324 1.56641L7.2959 6L11.7324 10.4346C12.0892 10.7913 12.0883 11.3699 11.7314 11.7266C11.3747 12.0831 10.7963 12.0839 10.4395 11.7275L6.00293 7.29199L1.56055 11.7334C1.20368 12.0901 0.624453 12.0901 0.267578 11.7334C-0.0892232 11.3768 -0.0890702 10.7981 0.267578 10.4414L4.70996 6L0.267578 1.55957C-0.0891429 1.20285 -0.0892109 0.624257 0.267578 0.267578Z",fill:"currentColor"})});var f=a(46403),j=a(65736);let v=e=>{let{onDropFiles:t,isDisabled:a,children:i,className:n}=e,[s,o]=(0,r.useState)(!1),l=(0,r.useRef)(null);return a?i:(0,h.jsxs)("div",{ref:l,className:(0,j.cn)("relative",n),onDragOver:e=>{e.preventDefault(),o(!0)},onDragLeave:e=>{l.current&&l.current.contains(e.relatedTarget)||o(!1)},onDrop:e=>{e.preventDefault(),o(!1);let{files:a}=e.dataTransfer;a&&a.length>0&&t(a)},children:[i,s&&(0,h.jsx)("div",{className:"absolute inset-0 text-medium-emphasis bg-black/70 flex items-center justify-center z-10 pointer-events-none p-2 text-center",children:(0,h.jsx)(f.default,{variant:"body-small-short",children:"Drop here"})})]})},b=e=>(0,h.jsxs)("svg",{width:"33",height:"32",viewBox:"0 0 33 32",fill:"none",xmlns:"http://www.w3.org/2000/svg",...e,children:[(0,h.jsx)("path",{d:"M11.6093 20.064L8.11719 24.9529H24.8791L19.2918 17.9688L14.4029 23.5561L11.6093 20.064Z",fill:"currentColor",stroke:"currentColor",strokeWidth:"1.39683",strokeLinejoin:"round"}),(0,h.jsx)("path",{d:"M17.4287 4.63086H9.22075C6.59629 4.63086 4.46875 6.7584 4.46875 9.38286V24.0709C4.46875 26.6953 6.59629 28.8229 9.22075 28.8229H23.9088C26.5332 28.8229 28.6607 26.6953 28.6607 24.0709V16.2949",stroke:"currentColor",strokeLinecap:"round"}),(0,h.jsx)("path",{d:"M24.875 3.04688L24.875 12.1897",stroke:"currentColor",strokeWidth:"0.831169",strokeLinecap:"round"}),(0,h.jsx)("path",{d:"M29.4492 7.61914L20.3064 7.61914",stroke:"currentColor",strokeWidth:"0.831169",strokeLinecap:"round"})]});var w=a(7701),_=a(30039),C=a(1825),T=a(35067),I=a(42693),E=a(1108),A=a(15523),k=a(85110);let N=Object.assign((0,E.Ay)(C.A)(e=>{let{theme:t}=e;return{padding:0,[`& .${T.A.container}`]:{alignItems:"end",[t.breakpoints.up("sm")]:{alignItems:"center"}},[`& .${T.A.paper}`]:{marginTop:0,maxHeight:"unset",height:"auto",borderRadius:"0px",borderTopLeftRadius:"32px",borderTopRightRadius:"32px",background:t.palette.grey[600],paddingLeft:t.spacing(2.5),paddingRight:t.spacing(2.5),paddingBottom:t.spacing(5),paddingTop:t.spacing(5),gap:t.spacing(3),[t.breakpoints.up("sm")]:{width:"468px",height:"unset",borderRadius:"32px",paddingLeft:t.spacing(6),paddingRight:t.spacing(6),gap:t.spacing(6)}}}}),{Content:(0,E.Ay)(I.A)(e=>{let{theme:t}=e;return{padding:0,display:"flex",flexDirection:"column",gap:t.spacing(1)}}),Title:(0,E.Ay)(f.default)(()=>({fontWeight:500,fontSize:"20px",lineHeight:"32px"})),Description:(0,E.Ay)(f.default)(()=>({fontWeight:400,fontSize:"14px",lineHeight:"150%"})),More:(0,E.Ay)(f.default)(e=>{let{theme:t}=e;return{fontWeight:400,fontSize:"14px",lineHeight:"150%",color:t.palette.grey[100]}}),Link:(0,E.Ay)("a")(()=>({display:"inline",textDecoration:"underline"})),Actions:(0,E.Ay)("div")(e=>{let{theme:t}=e;return{display:"flex",flexDirection:"column-reverse",padding:0,gap:t.spacing(2.5),[t.breakpoints.up("sm")]:{width:"100%",justifyContent:"flex-end",flexDirection:"row",gap:t.spacing(2)}}}),Button:(0,E.Ay)(w.A)(e=>{var t,a,r,i;let{theme:n}=e;return{width:"100%",borderRadius:"8px",height:"40px",fontWeight:500,fontSize:"16px",lineHeight:"20px",[n.breakpoints.up("sm")]:{width:"128px",borderRadius:"100px"},[`&.${_.A.contained}`]:{background:null==(t=n.palette.yellow)?void 0:t[400],borderColor:null==(a=n.palette.yellow)?void 0:a[400],color:n.palette.common.black,"&:hover":{background:null==(r=n.palette.yellow)?void 0:r[500],borderColor:null==(i=n.palette.yellow)?void 0:i[500]},[`&.${_.A.disabled}`]:{background:"transparent",color:n.palette.grey["100"],borderColor:n.palette.grey["100"]}},[`&.${_.A.outlined}`]:{background:"transparent",color:n.palette.common.white,borderColor:n.palette.common.white,"&:hover":{borderColor:n.palette.grey["50"],color:n.palette.grey["50"]},[`&.${_.A.disabled}`]:{background:(0,A.X4)(n.palette.grey["300"],.85),color:n.palette.common.black,borderColor:(0,A.X4)(n.palette.grey["300"],0)}}}}),CloseButton:k.D});var S=a(57217);let M=e=>{let{open:t,onClose:a,onAcceptClick:r,onDeclineClick:i,isSaving:n}=e,{t:s}=(0,u.Bd)("visual-ai"),{trackImageGenEvent:o}=(0,m.W)();return(0,h.jsxs)(N,{open:t,onClose:a,children:[(0,h.jsx)(N.CloseButton,{onClick:a}),(0,h.jsxs)(N.Content,{children:[(0,h.jsx)(N.Title,{children:s("legalTermsDialog.title")}),(0,h.jsx)(N.Description,{children:s("legalTermsDialog.description")}),(0,h.jsxs)(N.More,{children:["For more information, see our"," ",(0,h.jsx)(N.Link,{onClick:()=>o({name:"button clicked",button_name:"Terms of use"}),href:`${S.JZ.privacyTerms}${S.JZ.privacyTermsTermsOfUse}`,target:"_blank",rel:"noopener noreferrer",children:"Terms of Use"})," ","and"," ",(0,h.jsx)(N.Link,{onClick:()=>o({name:"button clicked",button_name:"License"}),href:`${S.JZ.privacyTerms}${S.JZ.privacyTermsLicense}`,target:"_blank",rel:"noopener noreferrer",children:"License."})]})]}),(0,h.jsxs)(N.Actions,{children:[(0,h.jsx)(N.Button,{variant:"outlined",onClick:i,children:"Decline"}),(0,h.jsx)(N.Button,{variant:"contained",disabled:n,onClick:r,children:"Accept"})]})]})};var O=a(10933),L=a.n(O),P=a(18498),R=a(26430),G=a(32638),B=a(14590),U=a(95315),F=a(72466),$=a(21797),D=a(97335),V=a(79061),X=a(41935);let W=X.z.object({success:X.z.boolean(),data:X.z.object({userId:X.z.string(),agreementName:X.z.string(),id:X.z.string(),createdAt:X.z.string(),updatedAt:X.z.string()}).nullable()}),z=U.A.create({baseURL:F.UK,headers:{"service-host":D.qb,"x-new-credits-plan":"true",...V.oG}}),K=e=>{var t,a,r;let i=(0,$.useSession)(),n=null==(t=i.data)?void 0:t.user.id,s=null==(a=i.data)?void 0:a.accessToken,{data:o,refetch:l}=(0,G.useQuery)({queryKey:["user-agreement",n,e],queryFn:async()=>{let t=await z.get(`/v1/user-agreements/${e}`,{headers:{Authorization:`Bearer ${s}`}}),a=W.safeParse(t.data);return a.success?a.data:null},enabled:!!(n&&s),refetchOnWindowFocus:!1}),{mutateAsync:d,isLoading:c}=(0,B.useMutation)({mutationKey:["user-agreement",n,e],mutationFn:async()=>{let t=await z.post("/v1/user-agreements",{agreementName:e},{headers:{Authorization:`Bearer ${s}`}}),a=W.safeParse(t.data);return a.success?a.data:null},retry:1,onSettled:async()=>{await l()}});return{hasUserAgreed:(null==o||null==(r=o.data)?void 0:r.agreementName)||!1,saveAgreement:d,isSaving:c}};var H=a(66871),Y=a(81428),J=a(59572),Q=a(43733),q=a(1393),Z=a(44924),ee=a(65598);let et=function(){let e=arguments.length>0&&void 0!==arguments[0]?arguments[0]:"all",{data:t,isFetching:a}=(0,ee.Mk)({type:e,created:"all"});return{hasCreations:(null==t?void 0:t.pages[0])&&(null==t?void 0:t.pages[0].total)>0||!1,isFetching:a}};var ea=a(79890),er=a(63665),ei=a(7371);let en=()=>(0,h.jsx)("div",{className:"lg:hidden absolute inset-0 bg-gray-950 z-2 flex items-center justify-center",children:(0,h.jsxs)("div",{className:"flex flex-col gap-3 items-center",children:[(0,h.jsxs)("div",{className:"relative",children:[(0,h.jsx)(er.A,{size:"45px",variant:"determinate",thickness:4,value:100,sx:e=>({color:e.palette.grey[300]})}),(0,h.jsx)(er.A,{size:"45px",thickness:4,sx:e=>({left:0,position:"absolute",color:e.palette.grey[50],[`& .${ei.A.circle}`]:{strokeLinecap:"round"}})})]}),"Uploading..."]})});var es=a(34044),eo=a(74706);let el=e=>{let{onClick:t}=e,{t:a}=(0,u.Bd)("visual-ai");return(0,h.jsx)("button",{className:"w-7 h-7 absolute top-1.5 right-1.5 lg:top-2.5 lg:right-2.5 lg:h-9 lg:w-9 bg-gray-800/80 rounded-full hover:bg-gray-300 transition-background",type:"button",onClick:t,"aria-label":a("imageToVideo.removeSelectedImage"),children:(0,h.jsx)(eo.g,{icon:es.yY})})},ed=r.memo(()=>(0,h.jsx)("svg",{width:"45",height:"45",viewBox:"0 0 45 45",fill:"none",xmlns:"http://www.w3.org/2000/svg",children:(0,h.jsx)("g",{children:(0,h.jsx)("path",{d:"M6.53875 42.5C5.38792 42.5 4.42708 42.1146 3.65625 41.3438C2.88542 40.5729 2.5 39.6121 2.5 38.4613V6.53875C2.5 5.38792 2.88542 4.42708 3.65625 3.65625C4.42708 2.88542 5.38792 2.5 6.53875 2.5H22.7887C23.1429 2.5 23.4398 2.62 23.6794 2.86C23.919 3.1 24.0387 3.39729 24.0387 3.75188C24.0387 4.10646 23.919 4.40313 23.6794 4.64188C23.4398 4.88063 23.1429 5 22.7887 5H6.53875C6.09 5 5.72125 5.14417 5.4325 5.4325C5.14417 5.72125 5 6.09 5 6.53875V38.4613C5 38.91 5.14417 39.2788 5.4325 39.5675C5.72125 39.8558 6.09 40 6.53875 40H38.4613C38.91 40 39.2788 39.8558 39.5675 39.5675C39.8558 39.2788 40 38.91 40 38.4613V22.2113C40 21.8571 40.12 21.5602 40.36 21.3206C40.6 21.081 40.8973 20.9613 41.2519 20.9613C41.6065 20.9613 41.9031 21.081 42.1419 21.3206C42.3806 21.5602 42.5 21.8571 42.5 22.2113V38.4613C42.5 39.6121 42.1146 40.5729 41.3438 41.3438C40.5729 42.1146 39.6121 42.5 38.4613 42.5H6.53875ZM9.42312 33.4613H35.5769L27.5 22.6925L20 32.1637L15 26.1537L9.42312 33.4613ZM35 10H31.25C30.8958 10 30.599 9.88 30.3594 9.64C30.1198 9.4 30 9.10271 30 8.74812C30 8.39354 30.1198 8.09687 30.3594 7.85812C30.599 7.61937 30.8958 7.5 31.25 7.5H35V3.75C35 3.39583 35.12 3.09896 35.36 2.85938C35.6 2.61979 35.8973 2.5 36.2519 2.5C36.6065 2.5 36.9031 2.61979 37.1419 2.85938C37.3806 3.09896 37.5 3.39583 37.5 3.75V7.5H41.25C41.6042 7.5 41.901 7.62 42.1406 7.86C42.3802 8.1 42.5 8.39729 42.5 8.75188C42.5 9.10646 42.3802 9.40313 42.1406 9.64188C41.901 9.88063 41.6042 10 41.25 10H37.5V13.75C37.5 14.1042 37.38 14.401 37.14 14.6406C36.9 14.8802 36.6027 15 36.2481 15C35.8935 15 35.5969 14.8802 35.3581 14.6406C35.1194 14.401 35 14.1042 35 13.75V10Z",fill:"currentColor"})})})),ec=()=>{let e=(0,r.useRef)(void 0);return{waitForAgree:async()=>new Promise((t,a)=>{e.current={resolve:t,reject:a}}),decline:()=>{e.current&&e.current.resolve(!1)},accept:()=>{e.current&&e.current.resolve(!0)},agreementPromiseRef:e}},eu="gen-ai-image-upload-agreement",ep=e=>{let{children:t}=e;return(0,h.jsx)("div",{className:"relative flex aspect-square md:h-67 md:w-67 lg:border lg:border-dashed lg:border-gray-400 rounded-lg",children:t})},em=e=>{H.default.trigger(J.yV.SIGN_UP__MODAL__OPEN,{clickSource:e.clickSource,buttonName:e.buttonName,trigger:e.trigger,registerSourceEvent:ea.e.GENERATION_BOX})},eg=e=>{let{isVisitor:t}=(0,R.f)(),{trackImageGenEvent:a}=(0,m.W)();return(0,h.jsx)("button",{type:"button",onClick:()=>{a({name:"button clicked",button_name:"choose"}),t&&em({buttonName:"generate an image",clickSource:"upload image",trigger:"upload image"});let e=document.getElementById("desktop-visual-ai-tabs-scroller");e&&e.scrollIntoView({behavior:"smooth"})},className:"underline cursor-pointer hover:text-gray-50",...e})},eh=e=>{let{children:t}=e,a=(0,q.RZ)();return(0,h.jsx)(L(),{href:a(S.JZ.textToImageAi),className:"underline cursor-pointer hover:text-gray-50 inline",children:t})},ex=r.memo(()=>{let{hasCreations:e,isFetching:t}=et("image"),{t:a}=(0,u.Bd)("visual-ai"),{isVisitor:r}=(0,R.f)(),{trackImageGenEvent:i}=(0,m.W)(),n="image-to-image-ai"===(0,Z.D)()?"prompt.imageToImage.uploadImagePrompt":"imageToVideo.uploadImagePrompt",o=e=>{r&&(e.preventDefault(),em({buttonName:"upload an image",clickSource:"upload image",trigger:"upload image"})),i({name:"button clicked",button_name:"Upload"})};return(0,h.jsx)("span",{children:(0,s.YW)({hasCreations:e,isFetching:t}).with({isFetching:!0},()=>null).with({hasCreations:!1},()=>(0,h.jsx)(u.x6,{i18nKey:"imageToVideo.uploadImagePromptNoCreations",t:a,components:{1:(0,h.jsx)("label",{htmlFor:"image-gen-upload-image-desktop",className:"underline cursor-pointer hover:text-gray-50","aria-label":"Upload",onClick:o}),2:(0,h.jsx)(eh,{}),3:(0,h.jsx)("br",{})}})).with({hasCreations:!0},()=>(0,h.jsx)("span",{children:(0,h.jsx)(u.x6,{i18nKey:n,t:a,components:{1:(0,h.jsx)("label",{htmlFor:"image-gen-upload-image-desktop",className:"underline cursor-pointer hover:text-gray-50","aria-label":"Upload",onClick:o}),2:(0,h.jsx)(eg,{}),3:(0,h.jsx)("br",{})}})})).exhaustive()})}),ey=e=>{let{children:t}=e;return(0,h.jsxs)("div",{"data-testid":"UploadPrompt",className:(0,j.cn)("flex flex-grow items-center justify-center absolute inset-0 lg:opacity-0 transition-opacity lg:hover:opacity-100 lg:bg-black/70 rounded-lg"),children:[t,(0,h.jsxs)("div",{className:"hidden lg:flex flex-col items-center",children:[(0,h.jsx)("div",{className:"text-white mb-4",children:(0,h.jsx)(ed,{})}),(0,h.jsx)("div",{className:"mb-2 text-white text-center",children:(0,h.jsx)(ex,{})}),(0,h.jsx)("div",{className:"text-gray-150 leading-none",children:"JPG/PNG"})]})]})},ef=()=>{let{isFetching:e}=et("image");return e?null:(0,h.jsx)("div",{"data-testid":"UploadPromptNoSelected",className:(0,j.cn)("flex flex-grow items-center justify-center absolute inset-0"),children:(0,h.jsxs)("div",{className:"flex flex-col items-center",children:[(0,h.jsx)("div",{className:"text-gray-300 md:mb-4",children:(0,h.jsx)(ed,{})}),(0,h.jsxs)(P.Dk,{children:[(0,h.jsx)("div",{className:"mb-2 text-center",children:(0,h.jsx)(ex,{})}),(0,h.jsx)("div",{className:"text-gray-200 leading-none",children:"JPG/PNG"})]})]})})},ej=r.memo(e=>{let{isDragOver:t}=e,{t:a}=(0,u.Bd)("visual-ai");return(0,h.jsx)("div",{className:(0,j.cn)("absolute inset-0 pointer-events-none transition-opacity bg-gray-500 flex items-center justify-center font-medium rounded-lg overflow-hidden",t?"opacity-1":"opacity-0"),children:a("imageToVideo.dropImagePrompt")})}),ev=e=>{let{handleInputUpload:t,uploadImageInputId:a}=e;return(0,h.jsx)("input",{hidden:!0,id:`image-gen-upload-image-${a}`,className:"w-full text-center",type:"file",accept:"image/png,image/jpg,image/jpeg",onClick:e=>{let{currentTarget:t}=e;t.value=""},onChange:t})},eb=e=>{let{children:t,setCurrentImage:a,uploadAndValidateImageMutation:i,hasImage:n,removeSelectedImage:o,uploadImageInputId:l,isPromptBeingSuggested:d,isCustomPromptBeingSuggested:c}=e,g=i.isUploading||i.isValidating||d||c,{t:x}=(0,u.Bd)("visual-ai"),[y,f]=(0,r.useState)(!1),{accept:j,decline:v,waitForAgree:b}=ec(),[w,_]=(0,r.useState)(!1),{hasUserAgreed:C,saveAgreement:T,isSaving:I}=K(eu),{trackImageGenEvent:E}=(0,m.W)(),{isVisitor:A}=(0,R.f)(),k="image-to-image-ai"===(0,Z.D)(),N=(0,r.useRef)(null),S=async(e,t)=>{if(o(),i.reset(),!C){E({name:"pop-up open",pop_up_title:x("legalTermsDialog.title"),pop_up_secondary_title:x("legalTermsDialog.description")}),f(!0);let e=await b();if(f(!1),!e)return;await T()}N.current&&i.mutate({files:e,canvas:N.current,uploadSource:t,maxSizeInMb:k?20:10},{onSuccess:e=>{let{downloadUrl:t,image:r}=e;a(t,(0,Q.j)(r).aspectRatio||p.gl.SQUARE)}})},O=async()=>{await T(void 0,{onError:()=>{Y.A.error(x("imageToVideo.agreementFailed"))}}),j(),E({name:"pop-up button clicked",button_name:"Accept",pop_up_title:x("legalTermsDialog.title"),pop_up_secondary_title:x("legalTermsDialog.description")})};return(0,h.jsxs)("div",{children:[(i.isUploading||i.isValidating)&&(0,h.jsx)(en,{}),(0,h.jsx)(ep,{children:(0,h.jsxs)("div",{className:"hidden flex-grow lg:flex relative",onDrop:e=>{e.preventDefault(),e.stopPropagation();let{files:t}=e.dataTransfer;A?em({clickSource:"upload image file drop",trigger:"upload image file drop"}):t.length>0&&S(t,"drop"),_(!1)},onDragOver:e=>{e.preventDefault(),_(!0)},onDragLeave:()=>{_(!1)},children:[t,(0,s.YW)([n,i.isUploading||i.isValidating]).with([!0,!1],()=>(0,h.jsx)(ey,{children:g?null:(0,h.jsx)(el,{onClick:o})})).with([!1,!1],()=>(0,h.jsx)(ef,{})).otherwise(()=>null),(0,h.jsx)(ev,{uploadImageInputId:l,handleInputUpload:e=>{let{files:t}=e.target;t&&t.length&&S(t,"os-dialog")}}),(0,h.jsx)(ej,{isDragOver:w})]})}),(0,h.jsx)("canvas",{ref:N,className:"hidden w-64 h-64 border border-solid"}),(0,h.jsx)(M,{open:y,onClose:()=>{v(),f(!1),E({name:"pop-up closed",pop_up_title:x("legalTermsDialog.title"),pop_up_secondary_title:x("legalTermsDialog.description")})},onAcceptClick:O,onDeclineClick:()=>{v(),E({name:"pop-up button clicked",button_name:"Decline",pop_up_title:x("legalTermsDialog.title"),pop_up_secondary_title:x("legalTermsDialog.description")})},isSaving:I})]})};var ew=a(39362);let e_=e=>{let{children:t}=e;return(0,h.jsx)("div",{className:"group relative w-full rounded-lg border border-gray-500 h-full w-full d:h-[268px] md:w-[268px] overflow-hidden",children:t})},eC=e=>{let{children:t}=e;return(0,h.jsx)("div",{className:"group relative rounded overflow-hidden border border-dashed border-gray-500 size-10",children:t})},eT=e=>{let{children:t}=e;return(0,h.jsx)("div",{className:"group relative rounded overflow-hidden border border-dashed border-gray-500 size-22",children:t})},eI=e=>{let{children:t}=e;return(0,h.jsx)(o.P.div,{initial:{opacity:0},animate:{opacity:1},exit:{opacity:0},className:"h-full w-full",children:t})},eE=e=>{let{children:t}=e;return(0,h.jsx)("div",{className:"backdrop-blur absolute inset-0 flex items-center justify-center",children:t})},eA=e=>{let{src:t}=e;return(0,h.jsxs)(h.Fragment,{children:[(0,h.jsx)(n.N,{children:t?(0,h.jsx)(eI,{children:(0,h.jsx)(ew.J,{src:t})}):null}),(0,h.jsxs)(eE,{children:[(0,h.jsx)(er.A,{size:"22px",variant:"determinate",thickness:5,value:100,sx:e=>({color:e.palette.grey[300]})}),(0,h.jsx)(er.A,{size:"22px",thickness:5,sx:e=>({position:"absolute",color:e.palette.grey[50],[`& .${ei.A.circle}`]:{strokeLinecap:"round"}})})]})]})},ek=e=>{let{src:t}=e;return(0,h.jsx)(eC,{children:(0,h.jsx)(eA,{src:t})})},eN=e=>{let{src:t}=e;return(0,h.jsx)(eT,{children:(0,h.jsx)(eA,{src:t})})};var eS=a(45869),eM=a(35121);class eO extends Error{constructor(){super(),this.type="NSFWUploadError",this.name="NSFWUploadError",Object.setPrototypeOf(this,eO.prototype)}}var eL=a(89675),eP=a(8499),eR=a(64741),eG=a(10101),eB=a(35724);class eU extends Error{constructor(){super(),this.type="TooManyFilesError",this.name="TooManyFilesError",Object.setPrototypeOf(this,eU.prototype)}}class eF extends Error{constructor(){super(),this.type="IncorrectMimeTypeError",this.name="IncorrectMimeTypeError",Object.setPrototypeOf(this,eF.prototype)}}class e$ extends Error{constructor(e){super(),this.type="ResolutionTooLowError",this.name="ResolutionTooLowError",this.image=e,Object.setPrototypeOf(this,e$.prototype)}}class eD extends Error{constructor(e){super(),this.type="ResolutionTooLargeError",this.name="ResolutionTooLargeError",this.image=e,Object.setPrototypeOf(this,eD.prototype)}}class eV extends Error{constructor(){super(),this.type="FileTooBigError20mb",this.name="FileTooBigError20mb",Object.setPrototypeOf(this,eV.prototype)}}class eX extends Error{constructor(){super(),this.type="FileTooBigError10mb",this.name="FileTooBigError10mb",Object.setPrototypeOf(this,eX.prototype)}}class eW extends Error{constructor(e){super(),this.type="FileContainsAlphaChannelError",this.name="FileContainsAlphaChannelError",this.image=e,Object.setPrototypeOf(this,eW.prototype)}}class ez extends Error{constructor(){super(),this.type="AspectRatioOutOfRangeError",this.name="AspectRatioOutOfRangeError",Object.setPrototypeOf(this,ez.prototype)}}var eK=a(184),eH=a(69043);X.z.object({file:X.z.any().refine(e=>e instanceof File).transform(e=>e)});let eY=X.z.object({success:X.z.boolean(),data:X.z.object({downloadUrl:X.z.string()})});X.z.object({imageUrl:X.z.string()});let eJ=X.z.object({success:X.z.boolean(),error:X.z.object({message:X.z.string(),code:X.z.number(),status:X.z.number()}).optional()}),eQ=async(e,t)=>{let a=await eH.g4.postForm("v1/upload/image-for-video",{file:e.file},{headers:{"Content-Type":e.file.type,Authorization:`Bearer ${t.accessToken}`}}),r=eY.safeParse(a.data);if(!r.success)throw eK.e$.error("Invalid uploadImage data",(0,eK.Xf)(r.error)),Error("Invalid uploadImage data.");return r.data},eq=async(e,t)=>{let a=await eH.i6.post("/v1/generatedImage/custom-image-moderation",{imageUrl:e.imageUrl},{headers:{Authorization:`Bearer ${t.accessToken}`}}).catch(e=>{if((0,eS.F0)(e)){var t,a,r;let i=eJ.safeParse(null==(t=e.response)?void 0:t.data);if(i.success&&null!=(a=i.data.error)&&a.message&&null!=(r=i.data.error)&&r.message.includes("NSFW"))throw new eO}throw e}),r=eJ.safeParse(a.data);if(!r.success)throw eK.e$.error("Invalid validateUploadedImage data",(0,eK.Xf)(r.error)),Error("Invalid validateUploadedImage data.");return r.data};var eZ=a(28948);let e0=e=>{let{t}=(0,eG.T)();return(0,s.YW)(e).with(s.P.instanceOf(eO),()=>t("visual-ai:imageToVideo.NSFWError")).with(s.P.instanceOf(eU),()=>t("visual-ai:imageToVideo.tooManyFilesError")).with(s.P.instanceOf(eF),()=>t("visual-ai:imageToVideo.mimeTypeError")).with(s.P.instanceOf(e$),()=>t("visual-ai:imageToVideo.lowResolutionError")).with(s.P.instanceOf(eD),()=>t("visual-ai:imageToVideo.largeResolutionError")).with(s.P.instanceOf(eX),()=>t("visual-ai:imageToVideo.fileSizeError10mb")).with(s.P.instanceOf(eV),()=>t("visual-ai:imageToVideo.fileSizeError20mb")).with(s.P.instanceOf(eW),()=>t("visual-ai:imageToVideo.alphaError")).with(s.P.instanceOf(eS.pe),()=>t("visual-ai:imageToVideo.genericUploadError")).with(s.P.instanceOf(ez),()=>t("visual-ai:imageToVideo.aspectRatioOutOfRangeError")).exhaustive()},e1=e=>{let t,{supplementalKey:a,imageIndex:r}=e,i=(0,eB._M)(),{trackImageGenEvent:n}=(0,m.W)(),o=(0,Z.D)()===eP.ty?eL.$.IMAGE_TO_VIDEO:eL.$.IMAGE_TO_IMAGE,l=(0,eR.Me)(),d=(0,B.useMutation)({mutationFn:e=>(e=>{let{files:t,canvas:a,maxSizeInMb:r}=e,i=a.getContext("2d");if(!i)throw Error("NO CTX");if(t.length>1)throw new eU;let n=t[0];if(!["image/jpeg","image/png"].includes(n.type))throw new eF;if(n.size/1024/1024>r)if(20===r)throw new eV;else throw new eX;return new Promise((e,t)=>{let r=new FileReader;r.onload=r=>{var s;let o=new Image;o.onload=()=>{let r,s=o.width*o.height/1e6;if(s<.5184)return t(new e$(o));if(s>200)return t(new eD(o));if((r=o.width/o.height)<.4||r>2.5)return t(new ez);a.width=o.width,a.height=o.height,i.drawImage(o,0,0);let{data:l}=i.getImageData(0,0,o.width,o.height);for(let e=0;e<l.length;e+=4)if(l[e+3]<255)return t(new eW(o));e({warning:s<.9216?"RESOLUTION_LOW":null,image:o,file:n})},o.src=null==(s=r.target)?void 0:s.result},r.readAsDataURL(n)})})(e)}),c=(e=>{let{imageIndex:t}=e,a=(0,eB._M)(),{trackImageGenEvent:r}=(0,m.W)(),i=(0,Z.D)(),n=i===eP.ty?eL.$.IMAGE_TO_VIDEO:eL.$.IMAGE_TO_IMAGE,o=(0,eR.Me)(),{state:{lastFrameSource:l}}=(0,eZ.Cm)(),d=(0,$.useSession)();return(0,B.useMutation)({mutationFn:async e=>{var t,a;let{file:r}=e;if(!(null!=(t=d.data)&&t.accessToken))throw eK.e$.error("No access token when trying to upload image.",{userId:null==(a=d.data)?void 0:a.user.id}),Error("No access token when trying to upload image.");return await eQ({file:r},{accessToken:d.data.accessToken})},onMutate:e=>{let{image:i,file:d}=e,c="none"!==l.type;r({name:"photo uploaded start",photo_size:`${(d.size/1024/1024).toFixed(1)}MB`,photo_format:(0,s.YW)(d.type).with("image/jpeg",()=>"jpeg").with("image/jpg",()=>"jpg").with("image/png",()=>"png").otherwise(()=>"unknown"),photo_resolution_width:i.width,photo_resolution_height:i.height,photo_resolution:`${i.width}x${i.height}`,generate_type:n,image_number:t+1,gen_AI_tier:(0,eB.Gl)(o(),a.imageToImage),..."image to video"===n&&{is_end_frame:c}})},onSuccess:(e,d)=>{let{file:c,image:u,uploadSource:p}=d,m="none"!==l.type;r({name:"photo uploaded successfully",photo_size:`${(c.size/1024/1024).toFixed(1)}MB`,photo_format:(0,s.YW)(c.type).with("image/jpeg",()=>"jpeg").with("image/jpg",()=>"jpg").with("image/png",()=>"png").otherwise(()=>"unknown"),upload_source:p,photo_resolution_width:u.width,photo_resolution_height:u.height,photo_resolution:`${u.width}x${u.height}`,generate_type:i===eP.ty?eL.$.IMAGE_TO_VIDEO:eL.$.IMAGE_TO_IMAGE,image_number:t+1,gen_AI_tier:(0,eB.Gl)(o(),a.imageToImage),..."image to video"===n&&{is_end_frame:m}})}})})({imageIndex:r}),u=(t=(0,$.useSession)(),(0,B.useMutation)({mutationFn:async e=>{var a,r;if(!(null!=(a=t.data)&&a.accessToken))throw eK.e$.error("No access token when trying to validate uploaded image.",{userId:null==(r=t.data)?void 0:r.user.id}),Error("No access token when trying to validate uploaded image.");return await eq(e,{accessToken:t.data.accessToken})}}));return{...(0,B.useMutation)({mutationKey:[eM.vd,a],mutationFn:async e=>{let t=await d.mutateAsync(e),a=await c.mutateAsync({file:t.file,image:t.image,uploadSource:e.uploadSource});return await u.mutateAsync({imageUrl:a.data.downloadUrl}),{warning:t.warning,downloadUrl:a.data.downloadUrl,image:t.image}},onError:(e,t)=>{let{files:a,uploadSource:d}=t,c=a[0];n({name:"photo upload failed",generate_type:o,image_number:r+1,error_message:e0(e),photo_size:c?`${(c.size/1024/1024).toFixed(1)}MB`:"unknown",photo_format:(0,s.YW)(null==c?void 0:c.type).with("image/jpeg",()=>"jpeg").with("image/jpg",()=>"jpg").with("image/png",()=>"png").otherwise(()=>"unknown"),upload_source:d,gen_AI_tier:(0,eB.Gl)(l(),i.imageToImage),...(0,s.YW)(e).with(s.P.union(s.P.instanceOf(e$),s.P.instanceOf(eW)),e=>({photo_resolution_width:e.image.width,photo_resolution_height:e.image.height,photo_resolution:`${e.image.width}x${e.image.height}`})).otherwise(()=>({photo_resolution_width:"unknown",photo_resolution_height:"unknown",photo_resolution:"unknown"}))})}}),isUploading:c.isLoading,uploadData:c.data,isValidating:u.isLoading}};var e2=a(87790);let e5=()=>(0,G.useQuery)({queryKey:["gen-ai-style-default"],queryFn:async()=>{let e=await (0,e2.p)({page:1,assetType:"generatedVideo"});return(null==e?void 0:e[0])||null},refetchOnWindowFocus:!1,staleTime:1/0});var e4=a(377);let e6=e=>{let{mutation:t,checkIfCanUpload:a}=e,r=(0,eR.C$)(),i=(0,$.useSession)();return{processFiles:async e=>{if("authenticated"!==i.status)return void H.default.trigger(J.yV.SIGN_UP__MODAL__OPEN,{clickSource:"prompt section",buttonName:"upload",trigger:"prompt section",registerSourceEvent:"prompt section"});if(!await a())return;let n=new OffscreenCanvas(256,256);e&&e.length>0&&(t.reset(),t.mutate({files:e,canvas:n,uploadSource:"os-dialog",maxSizeInMb:20},{onSuccess:e=>{let{downloadUrl:t,image:a}=e;r({type:"urlAdded",payload:{imageUrl:t,aspectRatio:(0,Q.j)(a).aspectRatio||p.gl.SQUARE}})},onError:e=>{let t=e0(e);Y.A.error(t)}}))}}};var e3=a(55506),e7=a(31504),e9=a(51786),e8=a(49089),te=a(82817);let tt=e=>{let{processFiles:t,handleUploadClick:a,openMyCreationsDialog:i,generateType:n,label:s,isLastFrame:o}=e,{t:l}=(0,u.Bd)("visual-ai"),{isVisitor:d}=(0,R.f)(),[p,x]=(0,r.useState)(null),[y,f]=(0,r.useState)(!1),{trackImageGenEvent:v}=(0,m.W)();return(0,h.jsxs)(h.Fragment,{children:[(0,h.jsx)(c.A,{title:s,placement:"top",children:(0,h.jsx)("button",{type:"button",onClick:()=>{f(!y),a()},ref:x,"data-testid":o?"Open upload image dropdown button- End Frame":"Open upload image dropdown button",className:(0,j.cn)("w-10 h-10 rounded border border-dashed flex flex-col items-center justify-center relative shrink-0 text-medium-emphasis"),children:(0,h.jsx)(b,{width:"20px",height:"20px"})})}),(0,h.jsx)(g.Ay,{open:y,anchorEl:p,onClose:()=>f(!1),anchorOrigin:{vertical:"top",horizontal:"right"},transformOrigin:{vertical:"top",horizontal:"left"},slotProps:{paper:{sx:{marginLeft:"10px"}}},children:(0,h.jsxs)(te.A,{children:[(0,h.jsxs)(e8.A,{className:"text-medium-emphasis text-sm",onClick:()=>{v({name:"button clicked",button_name:"Upload Images",click_source:`${n} text box`})},children:[(0,h.jsx)("span",{children:l("prompt.imageSourceMenu.upload")}),(0,h.jsx)(ev,{handleInputUpload:e=>{t(e.target.files),f(!1)},uploadImageInputId:"desktop"}),(0,h.jsx)("label",{htmlFor:"image-gen-upload-image-desktop",className:"absolute inset-0 cursor-pointer","aria-label":"Upload"})]}),(0,h.jsx)(e8.A,{className:"text-medium-emphasis text-sm",onClick:()=>{d?H.default.trigger(J.yV.SIGN_UP__MODAL__OPEN,{clickSource:"prompt section",buttonName:"Select from My Creations",trigger:"prompt section",registerSourceEvent:"prompt section"}):i(),f(!1),v({name:"button clicked",button_name:"Select from My Creations",click_source:`${n} text box`})},children:(0,h.jsx)("span",{children:l("prompt.imageSourceMenu.selectFromMyCreation")})})]})})]})},ta=()=>(0,h.jsxs)("div",{className:"flex grow items-center justify-center relative",children:[(0,h.jsx)(er.A,{size:"48px",variant:"determinate",thickness:6,value:100,sx:e=>({color:e.palette.grey[300]})}),(0,h.jsx)(er.A,{size:"48px",thickness:6,sx:e=>({position:"absolute",color:e.palette.grey[50],[`& .${ei.A.circle}`]:{strokeLinecap:"round"}})})]}),tr=()=>{let{fetchNextPage:e,hasNextPage:t,isFetchingNextPage:a,isLoading:i,isFetched:n,data:s}=(0,ee.Mk)({type:"image",created:"all"}),o=(0,r.useRef)(null),l=(0,r.useMemo)(()=>s?s.pages.flatMap(e=>e.history):[],[s]);return{isFetched:n,allImageCreations:l,handleLoadMore:(0,r.useCallback)(()=>{t&&!a&&e()},[e,t,a]),assignScrollContainerRef:(0,r.useCallback)(e=>{o.current=e},[]),scrollContainerRef:o,hasNextPage:t,isLoading:i}};var ti=a(87347);let tn=e=>{let{onLinkClick:t}=e,{t:a}=(0,u.Bd)("visual-ai"),r=(0,q.RZ)();return(0,h.jsxs)("div",{className:"flex h-full flex-grow flex-col items-center justify-center gap-7.5 pr-5",children:[(0,h.jsx)("div",{className:"flex h-20 w-20 items-center justify-center text-gray-300",children:(0,h.jsx)(ti.Q,{})}),(0,h.jsxs)("div",{className:"flex flex-col items-center justify-center gap-2",children:[(0,h.jsx)("div",{className:"text-lg text-gray-50",children:a("creations.loggedOut.title")}),(0,h.jsxs)("div",{className:"text-sm text-gray-100 text-center",children:[a("creations.loggedOut.description")," ",(0,h.jsx)(L(),{href:r("/text-to-image-ai"),onClick:t,className:"inline underline",children:a("creations.noResults.linkLabel")})]})]})]})};var ts=a(73694),to=a.n(ts),tl=a(62511),td=a(35996);let tc=e=>{let{allImageCreations:t,hasNextPage:a,scrollContainerRef:r,handleLoadMore:i,onImageSelect:n,assignScrollContainerRef:s}=e;return(0,h.jsx)("div",{ref:s,className:"flex-1 overflow-y-auto min-h-0 scrollbar-thin scrollbar-thumb-gray-300 scrollbar-track-gray-900 pr-5",children:(0,h.jsx)(to(),{loadMore:i,hasMore:a,useWindow:!1,getScrollParent:()=>r.current,initialLoad:!1,threshold:120,children:(0,h.jsx)(td.c,{className:"flex-row flex-wrap",itemFlexGrowFactors:{xs:1},itemMinHeights:{sm:220},children:t.map((e,t)=>(0,h.jsx)(td.c.Item,{index:t,aspectRatio:(0,tl.p$)(e.settings.aspectRatio),children:(0,h.jsx)("button",{"aria-label":"Dialog image creation",type:"button",className:"rounded-lg w-full h-full overflow-hidden",onClick:()=>n({imageAssetId:e.id,styleId:e.style.id,imageUrl:e.imageUrl,generationId:e.generationId}),children:(0,h.jsx)(ew.J,{src:e.imageUrl,alt:e.prompt})})},e.id))})})})},tu=e=>{let{isOpen:t,generateType:a,genAiModel:r,closeDialog:i,onImageSelect:n}=e,{t:o}=(0,u.Bd)("visual-ai"),{trackImageGenEvent:l}=(0,m.W)(),{isFetched:d,allImageCreations:c,handleLoadMore:p,assignScrollContainerRef:g,scrollContainerRef:x,hasNextPage:y,isLoading:f}=tr();return(0,h.jsxs)(C.A,{open:t,fullScreen:!0,sx:{"& .MuiDialog-paper":{maxWidth:"1166px",maxHeight:"735px",padding:"40px 20px 40px 40px"}},onClose:()=>{i(),l({name:"my creation modal closed",button_name:null})},children:[(0,h.jsxs)("div",{className:"flex h-full flex-col gap-6",children:[(0,h.jsx)("h2",{className:"text-2xl font-medium",children:o("prompt.myCreationsDialog.title")}),(0,s.YW)({isLoading:f,generateType:a,isEmpty:d&&0===c.length}).with({isLoading:!0},()=>(0,h.jsx)("div",{className:"flex flex-1 items-center justify-center pr-5",children:(0,h.jsx)(ta,{})})).with({isEmpty:!0},()=>(0,h.jsx)(tn,{onLinkClick:i})).with({isEmpty:!1,isLoading:!1,generateType:"image to i
[...]
)(),v=(0,$.useSession)(),b=(0,r.useMemo)(()=>{var e,t;return{is_enhancement:p.length>1,style:(null==(e=f.data)?void 0:e.name)??"",total_words:r8(g),images:h,aspect_ratio:(0,tv.PR)(x),prompt_edited:p.some(e=>"editEnhanced"===e.cause),gen_AI_tier:(null==(t=f.data)?void 0:t.name)??"unknown"}},[p,g,h,x,null==(t=f.data)?void 0:t.name]);return(0,B.useMutation)({mutationKey:["generate-image"],mutationFn:e=>{var t,a;let{imageCount:r,...i}=e;if(!(null!=(t=v.data)&&t.accessToken))throw eK.e$.error("No access token when trying to generate image.",{userId:null==(a=v.data)?void 0:a.user.id}),Error("No access token when trying to generate image.");if(g.length<1)throw new t3.AA;return Promise.all(Array.from({length:r}).map(()=>(0,r6.Fz)(i,v.data.accessToken)))},onSuccess:async e=>{n(ar({...b,is_valid:!0}),a??0,"image"),e.forEach(e=>{var t,r;let{data:i}=e;n((e=>{let{total_words:t,is_enhancement:a,prompt_edited:r,style:i,images:n,aspect_ratio:s,generate_id:o,dimensions:l,format:d,image_asset_id:c,source:u,gen_AI_tier:p}=e;return{gen_AI_tier:p,name:eL.$.GENERATE_START,click_source:eL.$.TEXT_TO_IMAGE_TEXT_BOX,media_type:"image ai",generate_type:eL.$.TEXT_TO_IMAGE,generate_id:o,total_words:t,is_enhancement:a,prompt_edited:r,style:i,images:n,aspect_ratio:s,dimensions:l,format:d,image_asset_id:c,source:u}})({images:h,is_enhancement:p.length>0,aspect_ratio:(0,tv.PR)(x),style:(null==(t=f.data)?void 0:t.name)??"",total_words:r8(g),prompt_edited:p.some(e=>"editEnhanced"===e.cause),generate_id:i.generationId,dimensions:"unknown",format:"unknown",image_asset_id:i.id,source:c,gen_AI_tier:j?(null==(r=f.data)?void 0:r.name)??"unknown":"unknown"}),a??0,"image")}),await l.invalidateQueries([eM.QN])},onError:e=>{n(ar({...b,is_valid:!1,message_text:(0,s.YW)(e).with(s.P.instanceOf(t3.OE),()=>o("prompt.rateLimitError")).with(s.P.instanceOf(t3.o1),()=>o("prompt.serverError")).with(s.P.instanceOf(t3.AA),()=>o("prompt.emptyImagePromptError")).with(s.P.instanceOf(t3.bg),()=>o("prompt.inappropriatePromptError")).with(s.P.instanceOf(t3.us),()=>o("prompt.serviceUnavailableError")).exhaustive()}),a??0,"image")},onSettled:a1.gq})})({cost:M});(e=>{let{generateImageMutation:t,enhancePromptMutation:a}=e,{state:i}=(0,tb.A0)();(0,r.useEffect)(()=>{t.error&&t.reset(),a.error&&a.reset()},[i])})({enhancePromptMutation:I,generateImageMutation:O});let{error:L}=(e=>{let{generateImageMutation:t,enhancePromptMutation:a}=e,{trackImageGenEvent:i}=(0,m.W)(),n=(0,r.useMemo)(()=>(e=>{let{enhancePromptMutation:t,generateImageMutation:a}=e;return t.error?t.error:a.error?a.error:null})({generateImageMutation:t,enhancePromptMutation:a}),[t,a]);return(0,r.useEffect)(()=>{n&&i({name:"error annotated",error_message:n.message,component:"text to image text box"})},[n,i]),{error:n}})({generateImageMutation:O,enhancePromptMutation:I}),G=!!S.length,U=async()=>{if(d.styleId&&!((j??0)<=0&&w("Generate for free",ea.e.GENERATION_BOX))){let e;if(e=M||0,(!v||!(f>=e))&&!((j??0)>0))return void _(!b,"Generate",ea.e.GENERATION_BOX);E(),O.mutate({aspectRatio:k,imageCount:N,prompt:A,styleId:d.styleId},{onSuccess:()=>{l(!1),g.push(y(`/text-to-image-ai/creations?${x}`))},onError:()=>{l(!0)}}),o(!0),await new Promise(e=>setTimeout(e,3e3)),o(!1)}},F=!!v||!C&&(null===j||0===j),D=(0,h.jsx)(sk,{ref:a,selectedStyleQuery:T,enhancePromptMutation:I,generateImageMutation:O,error:L,isGenerateButtonThrottled:n,cost:M,canUndo:G,handleGeneration:U,handleUpgradeJourneys:(e,t)=>_(b,e,t),handleJourneys:w,creditsLeft:f,freeGenerations:j,isPaidEnabled:v??!1,shouldShowCost:F}),V=(0,h.jsx)(sm,{ref:a,selectedStyleQuery:T,enhancePromptMutation:I,generateImageMutation:O,error:L,isGenerateButtonThrottled:n,cost:M,canUndo:G,handleGeneration:U,handleUpgradeJourneys:(e,t)=>_(b,e,t),handleJourneys:w,creditsLeft:f,freeGenerations:j,isPaidEnabled:v??!1,shouldShowCost:F,filterSlot:t});return(0,h.jsx)("div",{className:"flex-1","aria-label":"Image generation prompt",children:(0,s.YW)({isReady:c,isBelowLG:p}).with({isReady:!1},()=>(0,h.jsxs)(h.Fragment,{children:[(0,h.jsx)(P.Nv,{children:D}),(0,h.jsx)(P.J$,{children:V})]})).with({isBelowLG:!0},()=>D).with({isBelowLG:!1},()=>V).exhaustive()})},sM=()=>((()=>{let e="authenticated"===(0,$.useSession)().status,t=(0,is.x)(),{dispatch:a}=(0,tJ.aX)(),i=(0,r.useRef)(e);(0,r.useEffect)(()=>{!e&&i.current&&a({type:"promptReset"}),i.current=e},[e,t])})(),null),sO=()=>{let e=(0,Z.D)(),t=tV(),{state:a,dispatch:r}=(0,tb.A0)(),{isBelowLG:i}=(0,t0.Qs)(),{isFeatureEnabled:o}=(0,tw.p)(),l=(0,tj.r)();return(0,h.jsxs)(h.Fragment,{children:[(0,h.jsx)(ss,{}),(0,h.jsx)(io,{}),(0,h.jsx)(sM,{}),(0,h.jsx)(nT,{}),(0,h.jsx)(sL,{}),(0,s.YW)(e).with(eP.Nz,()=>{var e;let i=null==(e=t.data)?void 0:e.pages.flat(),n=null==i?void 0:i.find(e=>e.id===a.styleId),l=e=>{r({type:"styleChosen",payload:e.target.value})};return(0,h.jsx)(sS,{filterSlot:(0,s.YW)({allStyles:i,selectedStyle:n,isTextToImageModelSelectEnabled:o}).with({allStyles:void 0},()=>(0,h.jsx)(aw.A,{className:"w-[162px] h-[44px]"})).with({selectedStyle:void 0},()=>(0,h.jsx)(aw.A,{className:"w-[162px] h-[44px]"})).with({isTextToImageModelSelectEnabled:!0},e=>{let{allStyles:t,selectedStyle:a}=e;return(0,h.jsx)(tU,{onChange:l,styles:t??[],value:null==a?void 0:a.id})}).otherwise(e=>{let{allStyles:t,selectedStyle:a}=e;return(0,h.jsx)(tY,{onChange:l,styles:t??[],value:null==a?void 0:a.id})})})}).with(eP.ri,()=>(0,h.jsx)(nC,{children:(0,h.jsx)(tx,{})})).with(eP.ty,()=>(0,h.jsx)(sn,{children:(0,h.jsxs)("div",{className:(0,j.cn)("flex h-full items-center gap-3",l&&"min-w-34.5"),children:[(0,h.jsx)(ty,{sourceType:"firstFrame"}),(0,h.jsx)(n.N,{initial:!1,mode:"popLayout",children:l&&(0,h.jsxs)(h.Fragment,{children:[(0,h.jsx)(ii,{}),(0,h.jsx)(tf,{})]})})]})})).with(eP.pC,()=>(0,h.jsx)(ie,{})).exhaustive(),i&&(0,h.jsx)(rC,{})]})},sL=()=>{let e=(0,Z.D)(),t=(0,eB._M)(),a=(0,i.useParams)(),n=null==a?void 0:a.modelSlug,{dispatch:o}=(0,tJ.aX)(),l=(0,eR.C$)(),{dispatch:d}=(0,eZ.kt)(),{isFeatureEnabled:c}=it();return(0,r.useEffect)(()=>{(0,s.YW)({modelSlug:n,genAIMode:e}).with({genAIMode:eP.pC,modelSlug:s.P.string},e=>{let{modelSlug:a}=e,r=(0,ia.j)(t.textToVideo,a);r&&o({type:"modelGroupChosen",payload:r})}).with({genAIMode:eP.ri,modelSlug:s.P.string},e=>{let{modelSlug:a}=e,r=(0,ia.j)(t.imageToImage,a);r&&l({type:"modelGroupSelected",payload:{modelGroupId:r.modelGroupId,...c?{aspectRatio:p.gl.AUTO}:{}}})}).with({genAIMode:eP.ty,modelSlug:s.P.string},e=>{let{modelSlug:a}=e,r=(0,ia.j)(t.imageToVideo,a);r&&d({type:"modelGroupChosen",payload:r})}).with({genAIMode:s.P.union(eP.ri,eP.Nz,eP.ty,eP.pC)},{modelSlug:void 0},e9.l).exhaustive()},[e,n,t,o,l,d,c]),null}},77204:(e,t,a)=>{"use strict";a.d(t,{d:()=>o});var r=a(439),i=a(94420),n=a(21317),s=a(54568);let o=e=>{let{assetId:t,assetType:a,isOpen:o,placement:l,exceptedCollectionIds:d,onCreateArtboard:c,onAdd:u,onRemove:p,onOpen:m,onClose:g,thumbnailUrl:h,drawerStyle:x}=e,{t:y}=(0,r.Bd)("common");return(0,s.jsx)(n.W.SubMenu,{title:y("actions.addToArtboard"),isOpen:o,onShowSubMenu:m,onCloseSubMenu:g,placement:l,drawerStyle:x,children:(0,s.jsx)(i.V,{assetId:t,assetType:a,exceptedCollectionIds:d,onCreateArtboard:c,onAdd:u,onRemove:p,thumbnailUrl:h})})}},78349:(e,t,a)=>{"use strict";a.d(t,{T:()=>p,u:()=>m});var r=a(22875),i=a(32638),n=a(21797),s=a(83614),o=a(72988),l=a(78025);let d=Object.values(s.L_),c=Object.values(s.Ji),u=async()=>{var e,t;let a=await (0,s.x6)();if(!a)return null;let{leadJourney:r}=(0,l.xA)(),i=(null==(e=a.leadInfo)?void 0:e.classification)??"",n=r??"",{journey:o,bftJourney:u}=(t=a.journey)&&0!==t.length?{journey:t.find(e=>d.includes(e))||"",bftJourney:t.find(e=>c.includes(e))||""}:{journey:"",bftJourney:""},p=o!==n;(0,l.X4)(i),(0,l.rL)(o),(0,l.Dv)(u);let m=[s.L_.UQL_S1,s.L_.UQL_S2,s.L_.UQL_S3,s.L_.UQL_S4,s.L_.UQL_S5].includes(o),g=[s.Jq.PL,s.Jq.UQL,s.Jq.SQL,s.Jq.ClosedWon,s.Jq.ClosedLost,s.Jq.Opportunity].includes(i);return{...a,hasJourneyChanged:p,previousJourney:n,updatedLeadJourney:o,isUqlJourney:m,isPLJourney:o===s.L_.PL,isSQLJourney:o===s.L_.SQL,isPLBFTJourney:u===s.Ji.PL_BFT,isSQLBFTJourney:u===s.Ji.SQL_BFT,isPLClassification:i===s.Jq.PL,isSQLClassification:i===s.Jq.SQL,isEnterpriseClassification:g}},p=()=>{var e,t,a,o,d,c,p,m,g,h,x;let y="authenticated"===(0,n.useSession)().status,f=(0,r.useQueryClient)(),j=(0,i.useQuery)({queryKey:s.y0,queryFn:async()=>{let e=await u();return f.setQueryData(s.gC,e),e},staleTime:18e5,refetchOnWindowFocus:!1,retry:!1,enabled:y}),v=(0,i.useQuery)({queryKey:[...s.y0,"cookie",j.data],queryFn:l.xA,enabled:y}),b=!!v.data&&(v.data.leadJourney===s.L_.UQL_S1||v.data.leadJourney===s.L_.UQL_S3),w=!!v.data&&(v.data.leadJourney===s.L_.UQL_S1||v.data.leadJourney===s.L_.UQL_S3||v.data.leadJourney===s.L_.UQL_S4);return{leadJourneyQuery:j,leadJourneyCookieQuery:v,shouldShowUqlJourney:b,shouldShowUqlJourneyExtended:w,isPLJourney:(null==(e=v.data)?void 0:e.isPLJourney)??!1,isSQLJourney:(null==(t=v.data)?void 0:t.isSQLJourney)??!1,isPLBFTJourney:(null==(a=j.data)?void 0:a.isPLBFTJourney)??!1,isSQLBFTJourney:(null==(o=j.data)?void 0:o.isSQLBFTJourney)??!1,isAnyBFTJourney:(null==(d=j.data)?void 0:d.isPLBFTJourney)||(null==(c=j.data)?void 0:c.isSQLBFTJourney)||!1,isSQLClassification:(null==(p=j.data)?void 0:p.isSQLClassification)??!1,isPLClassification:(null==(m=j.data)?void 0:m.isPLClassification)??!1,isEnterpriseClassification:(null==(g=j.data)?void 0:g.isEnterpriseClassification)??!1,companyName:(null==(h=j.data)||null==(x=h.leadInfo)?void 0:x.companyName)||null}},m=()=>{let e="authenticated"===(0,n.useSession)().status,{leadClassification:t}=(0,l.Nv)(),{leadJourneyQuery:a}=p();return(0,i.useQuery)({queryKey:s.gC,queryFn:async()=>{if(!a.isStale)return a.data;let e=await a.refetch();return null!=e&&e.data&&(0,o.r5)({trigger:"UQL offline solution",previousLeadJourney:e.data.previousJourney,updatedLeadJourney:e.data.updatedLeadJourney,hasJourneyChanged:e.data.hasJourneyChanged}),e},refetchInterval:18e5,refetchOnWindowFocus:!1,enabled:e&&!!t})}},85012:(e,t,a)=>{"use strict";a.d(t,{p:()=>s});var r=a(32638);a(63875);var i=a(87790),n=a(97436);let s=(e,t)=>{let{dispatch:a}=(0,n.m1)();return(0,r.useQuery)({queryKey:["styleById",e],queryFn:()=>(0,i.c)({id:e??""}),enabled:!!e,staleTime:3e5,retry:!1,onError:()=>{a({type:"styleReset"})},...t})}},87455:(e,t,a)=>{"use strict";a.d(t,{r:()=>n,v:()=>i});var r=a(54568);let i=e=>(0,r.jsx)("svg",{width:"18",height:"19",viewBox:"0 0 18 19",fill:"none",xmlns:"http://www.w3.org/2000/svg",...e,children:(0,r.jsx)("path",{d:"M8.76167 1.73584C8.83538 1.50316 9.16462 1.50317 9.23833 1.73583L10.7437 6.48795L11.4587 6.26145L10.7437 6.48795C10.9138 7.02473 11.3317 7.4469 11.8667 7.62234L16.7945 9.2382C17.0258 9.31403 17.0234 9.64202 16.791 9.71443L11.8914 11.2413C11.3423 11.4124 10.9124 11.8423 10.7413 12.3914L11.4573 12.6145L10.7413 12.3914L9.23868 17.2132C9.16571 17.4474 8.83429 17.4474 8.76132 17.2132L7.25871 12.3914C7.08761 11.8423 6.65767 11.4124 6.10861 11.2413L1.20898 9.71443C0.97663 9.64202 0.974206 9.31403 1.20547 9.2382L6.13326 7.62234C6.6683 7.4469 7.08624 7.02473 7.25628 6.48795L6.5413 6.26145L7.25628 6.48795L8.76167 1.73584Z",stroke:"currentColor",strokeWidth:"2",strokeLinecap:"round"})}),n=e=>(0,r.jsx)("svg",{width:"14",height:"15",viewBox:"0 0 18 19",fill:"none",xmlns:"http://www.w3.org/2000/svg",...e,children:(0,r.jsx)("path",{d:"M8.76167 1.73584C8.83538 1.50316 9.16462 1.50317 9.23833 1.73583L10.7437 6.48795L11.4587 6.26145L10.7437 6.48795C10.9138 7.02473 11.3317 7.4469 11.8667 7.62234L16.7945 9.2382C17.0258 9.31403 17.0234 9.64202 16.791 9.71443L11.8914 11.2413C11.3423 11.4124 10.9124 11.8423 10.7413 12.3914L11.4573 12.6145L10.7413 12.3914L9.23868 17.2132C9.16571 17.4474 8.83429 17.4474 8.76132 17.2132L7.25871 12.3914C7.08761 11.8423 6.65767 11.4124 6.10861 11.2413L1.20898 9.71443C0.97663 9.64202 0.974206 9.31403 1.20547 9.2382L6.13326 7.62234C6.6683 7.4469 7.08624 7.02473 7.25628 6.48795L6.5413 6.26145L7.25628 6.48795L8.76167 1.73584Z",stroke:"currentColor",strokeWidth:"2",strokeLinecap:"round"})})},87790:(e,t,a)=>{"use strict";a.d(t,{c:()=>c,p:()=>o});var r=a(26538),i=a(184),n=a(59786);let s=`
  query GenerativeMediaStyleList($page: Int!, $assetType: String, $feature: String) {
    generativeMediaStyleList(page: $page, assetType: $assetType, feature: $feature) {
      id
      coverImageUrl
      name
      upscaleCost
      videoGenerationFullHdCost
      videoGenerationHdCost
      imageGenerationCost
      description
      tags
    }
  }
`,o=async e=>{let t=await r.wr.query(s,e),a=n.ZK.safeParse(t);if(!a.success)throw i.e$.error("Invalid styles data",(0,i.Xf)(a.error)),Error("Invalid styles data.");return a.data.generativeMediaStyleList},l=`
  showcases {
    videoUrl
    videoResolution
    styleId
    prompt
    imageUrl
    id
    displayOrder
    dimensions
    aspectRatio
  }
`,d=`
  query StylesByIds($ids: [String!]!) {
    generativeMediaStyles(ids: $ids) {
      id
      coverImageUrl
      name
      upscaleCost
      videoGenerationFullHdCost
      videoGenerationHdCost
      imageGenerationCost
      description
      tags
      ${l}
    }
  }
`,c=async e=>{let t=await r.wr.query(d,{ids:[e.id]}),a=n.gH.safeParse(t);if(!a.success)throw i.e$.error("Invalid style data",(0,i.Xf)(a.error)),Error("Invalid style data.");let s=a.data.generativeMediaStyles[0];if(!s)throw i.e$.error("No style exists with ID",{id:e.id}),Error("No style exists with ID.");return s}},88878:(e,t,a)=>{"use strict";a.d(t,{x:()=>n});var r=a(7620),i=a(902);let n=()=>{let e=(0,i.useRouter)();return(0,r.useCallback)(t=>{let{to:a,search:r=""}=t;return e.push(`${a}${r}`)},[e])}},90180:(e,t,a)=>{"use strict";a.d(t,{R2:()=>o,n4:()=>s,qS:()=>d});var r=a(72466),i=a(27732);let n=`${r.w4}/artlist-images`,s=function(){let e=arguments.length>0&&void 0!==arguments[0]?arguments[0]:"";return/^https?:\/\/([a-zA-Z0-9-]+\.)?imgix\.net\//.test(e)},o=(e,t)=>{let a=e;if(null!=e&&e.includes(n)&&(a=e.replace(n,r.Vs)),!s(a))return a;let o=(0,i.G)({auto:"format",w:t});return`${a}${o}`},l=[640,768,1024,1280,1440,1600,1920,3840],d=e=>l.find(t=>e<t)||l[l.length-1]},97436:(e,t,a)=>{"use strict";a.d(t,{A0:()=>p,Jw:()=>g,m1:()=>m});var r=a(96240),i=a(91608),n=a(95854),s=a(80752),o=a(3548);let l={prompt:"",aspectRatio:s.gl.SQUARE,imageCount:1,changelog:[],isTyping:!1,promptWasRestored:!1,promptWasCleared:!1,styleId:null},d=(0,r.eU)(l),c=(0,r.eU)(e=>e(d),async(e,t,a)=>{let r,i=(r=e(d),(0,o.YW)(a).with({type:"promptUpdated"},e=>{let{payload:t}=e,a=r.promptWasCleared?r.promptWasCleared:0===t.length;if(r.changelog.length>0){if(!r.isTyping){var i;let e;return{...r,prompt:t,changelog:[...r.changelog,{prompt:r.prompt,cause:"editEnhanced",styleId:null==(i=(e=r.changelog)[e.length-1])?void 0:i.styleId}],isTyping:!0,promptWasRestored:!1,promptWasCleared:a}}return{...r,prompt:t,isTyping:!0,promptWasRestored:!1,promptWasCleared:a}}return{...r,prompt:t,changelog:[],isTyping:!1,promptWasRestored:!1,promptWasCleared:a}}).with({type:"aspectRatioChosen"},e=>{let{payload:t}=e;return{...r,aspectRatio:t}}).with({type:"imageCountToGenerateChosen"},e=>{let{payload:t}=e;return{...r,imageCount:t}}).with({type:"promptEnhanced"},e=>{let{payload:t}=e;if(!r.styleId)throw Error("A style is required to enhance a prompt.");return{...r,prompt:t,changelog:[...r.changelog,{prompt:r.prompt,cause:"enhance",styleId:r.styleId}],isTyping:!1,promptWasRestored:!1,promptWasCleared:!1}}).with({type:"changesUndone"},()=>{if(0===r.changelog.length)throw Error("Cannot undo a prompt if it has never been enhanced.");let e=[...r.changelog],t=e.pop();return{...r,prompt:t.prompt,changelog:e,isTyping:!1,promptWasRestored:!1,promptWasCleared:!1}}).with({type:"creationDetailsSet"},e=>{let{payload:{aspectRatio:t,prompt:a,styleId:i}}=e;return{...r,styleId:i,aspectRatio:t,prompt:a,imageCount:1,changelog:[],promptWasRestored:!1,isTyping:!1,promptWasCleared:!1}}).with({type:"styleChosen"},e=>{let{payload:t}=e,a=(()=>{if(r.promptWasCleared)return null;let e=[...r.changelog].reverse().find(e=>"enhance"===e.cause);return e?e.prompt:null})();return{...r,prompt:a||r.prompt,promptWasRestored:null!==a,promptWasCleared:!1,changelog:[],styleId:t,aspectRatio:s.gl.SQUARE}}).with({type:"styleReset"},()=>({...r,prompt:"",changelog:[],styleId:null,isTyping:!1,promptWasRestored:!1,promptWasCleared:!1})).exhaustive());t(d,i)}),u=(0,n.Iz)(e=>(0,r.eU)(t=>t(d).styleId===e)),p=()=>{let[e,t]=(0,i.fp)(c);return{state:e,dispatch:t}},m=()=>({dispatch:(0,i.Xr)(c)}),g=e=>{let[t]=(0,i.fp)(u(e));return t}},98512:(e,t,a)=>{"use strict";a.d(t,{B:()=>d,T:()=>l});var r=a(3548),i=a(80752),n=a(54568);let s=e=>{let{aspectRatio:t}=e;return(0,n.jsx)("div",{style:{borderRadius:"0.1625rem",aspectRatio:(0,r.YW)(t).with(i.gl.LANDSCAPE_16X9,()=>"16 / 9").with(i.gl.SQUARE,()=>"1").with(i.gl.PORTRAIT_9X16,()=>"9 / 16").with(i.gl.PORTRAIT_2X3,()=>"2 / 3").with(i.gl.LANDSCAPE_3X2,()=>"3 / 2").exhaustive(),width:(0,r.YW)(t).with(i.gl.LANDSCAPE_16X9,()=>24).with(i.gl.SQUARE,()=>24).with(i.gl.PORTRAIT_9X16,()=>12).with(i.gl.PORTRAIT_2X3,()=>12).with(i.gl.LANDSCAPE_3X2,()=>24).exhaustive()},className:"border border-solid border-highest-emphasis"})},o=()=>(0,n.jsxs)("div",{className:"relative flex items-center justify-center w-6 h-6",children:[(0,n.jsx)("div",{style:{borderRadius:"0.1625rem",aspectRatio:"16/9",width:22.857},className:"absolute border border-solid border-highest-emphasis"}),(0,n.jsx)("div",{style:{borderRadius:"0.1625rem",aspectRatio:"9/16",width:12.857},className:"absolute border border-solid border-highest-emphasis"})]}),l=e=>{let{aspectRatio:t}=e;return(0,n.jsx)("div",{style:{borderRadius:"0.375rem"},className:"flex aspect-square w-7 shrink-0 items-center justify-center",children:(0,r.YW)(t).with(i.gl.AUTO,()=>(0,n.jsx)(o,{})).otherwise(()=>(0,n.jsx)(s,{aspectRatio:t}))})},d=e=>{let{aspectRatio:t}=e;return(0,n.jsx)("div",{style:{borderRadius:"0.375rem"},className:"flex aspect-square w-10 shrink-0 items-center justify-center bg-highest-emphasis text-black",children:(0,r.YW)(t).with(i.gl.AUTO,()=>(0,n.jsx)(o,{})).otherwise(()=>(0,n.jsx)(s,{aspectRatio:t}))})}},99316:(e,t,a)=>{"use strict";a.d(t,{O:()=>v});var r=a(7620),i=a(52045),n=a(25002),s=a(96240),o=a(91608),l=a(84768),d=a(37562),c=a.n(d),u=a(72466),p=a(21797),m=a(55760),g=a(7375),h=a(87992),x=a(78349),y=a(36634),f=a(75087);let j=(0,s.eU)({}),v=(e,t)=>{var a,s;let d,v,b=(()=>{let e=l.A.get(y.WT),{browser:t,operatingSystem:a,device:i}=(0,g.e)(),{geoData:n}=(0,m.M)(),s="authenticated"===(0,p.useSession)().status,{data:d}=(0,h.J)(),{isPLJourney:f,isPLBFTJourney:v}=(0,x.T)(),[b,w]=(0,o.fp)(j);return((0,r.useEffect)(()=>{(()=>{var r,o,l,p,m,g;let h={};if(h.device=i.type||"",h.os=a.name||"",h.browser=t.name||"",!u.tb&&null!=(r=window)&&null!=(o=r.location)&&o.host&&(h.host=window.location.host),e&&(h.anonymousID=e),null!=n&&n.countryCode&&(h.countryCode=null==n||null==(l=n.countryCode)?void 0:l.toUpperCase()),h.isPLJourney=f,h.isPLBFTJourney=v,s&&d){let e={...h,userID:(null==d||null==(p=d.id)?void 0:p.toString())||"",userStatus:d.subscription?"paid":"trial",userRole:(null==d||null==(m=d.subscription)||null==(g=m.team)?void 0:g.role)||""};w(t=>c()(t,e)?t:e)}else{let e={...h,userStatus:"guest"};w(t=>c()(t,e)?t:e)}})()},[n,s,d,f,v]),e)?b:{}})(),{manager:w}=(0,i.p)(),_=null==w?void 0:w.split(e),C=(d=null==b||null==(a=b.anonymousID)?void 0:a.toString(),(v=null==b||null==(s=b.userID)?void 0:s.toString())&&t?{matchingKey:v,bucketingKey:d}:(null==_?void 0:_.trafficType)===f.ol.user&&v?v:d),{client:T,isReady:I}=(0,n.V)({splitKey:C,attributes:b});return{isReady:I,getTreatment:()=>{if(I&&T)return T.getTreatmentWithConfig(e,b)}}}}},e=>{e.O(0,[30014,42757,43307,96460,60048,41935,28701,77340,74706,35055,66722,58366,12185,22820,10933,91608,95919,32638,64779,13263,95854,95702,86789,93942,10108,51050,28334,1419,14471,46799,57874,98435,78748,54858,39654,44184,7837,19397,24990,65301,11299,84176,54150,41823,90822,92748,22622,90322,587,21998,77358],()=>e(e.s=17077)),_N_E=e.O()}]);
//# sourceMappingURL=default-9b2a1bc186fa5bf8.js.map
//# debugId=8a2ca72b-3f3b-5ee1-ba4a-91ba164c4812
